%chk=11_C18H10N4OS3Si.chk
%NProcShared=12
%Mem=8000MB
#B3LYP/6-31++G(d,p) opt scf=direct freq test

Geom opt of No.11 candidate from the CEPDB database with SMILE code of [SiH2]1ccc2c1c(sc2-c1cnc(s1)-c1ccc[nH]1)-c1nccc2nsnc12, HPC, 20131227, Shuo Dai, Gaussian09

0  1
Si         -1.54978         1.58078         0.00413
H          -1.69879         2.32425        -1.26874
H          -1.69407         2.30600         1.28778
C          -2.34326        -0.12133         0.00147
C          -1.40417        -1.07859         0.00256
C          -0.04065        -0.59854         0.00253
C           0.11175         0.80852         0.00168
C           1.40104         1.24913         0.00076
S           2.43935        -0.08174         0.00570
C           1.19296        -1.19269         0.00175
C           1.60938        -2.53424        -0.00480
C           2.87100        -3.10112         0.01500
N           2.87481        -4.47768         0.01355
C           1.62619        -4.85791        -0.01298
S           0.42322        -3.69323        -0.05909
C           1.16119        -6.18283        -0.00969
C           1.85326        -7.34761        -0.01685
C           0.88278        -8.37209        -0.01084
C          -0.36873        -7.79284        -0.00217
N          -0.18700        -6.44925        -0.00267
H          -0.90490        -5.73304        -0.00186
C           1.98911         2.55457        -0.00108
N           1.13329         3.61127         0.00060
C           1.62150         4.87600        -0.00096
C           2.96248         5.25091        -0.00296
C           3.87469         4.18023        -0.00602
N           5.21388         4.28345        -0.01008
S           5.82012         2.74218        -0.01394
N           4.41344         1.90354        -0.00993
C           3.39309         2.78511        -0.00550
H          -3.41547        -0.25845         0.00258
H          -1.68518        -2.12603         0.00442
H           3.82066        -2.56965         0.03442
H           2.93654        -7.40677        -0.02666
H           1.08268        -9.42785        -0.01320
H          -1.36977        -8.19709         0.00380
H           0.83967         5.63235        -0.00112
H           3.28661         6.27589        -0.00335



