%chk=81_C18H9N5S2SeSi.chk
%NProcShared=12
%Mem=8000MB
#B3LYP/6-31++G(d,p) opt scf=direct freq test

Geom opt of No.81 candidate from the CEPDB database with SMILE code of C1ccc2c1c(sc2-c1ccc[Se]1)-c1ncc(-c2nccs2)c2nsnc12, HPC, 20131227, Shuo Dai, Gaussian09

0  1
C          -1.24900         1.15800        -0.00400
C          -2.09400        -0.04400         0.00200
C          -1.29200        -1.07500         0.00000
C          -0.01500        -0.66200        -0.00000
C           0.02100         0.71400         0.00200
C           1.34900         1.05800         0.00100
S           2.04100        -0.07100        -0.00000
C           1.24200        -1.07800        -0.00100
C           1.66611        -2.49802        -0.00298
C           1.90952        -2.93308        -1.22793
C           1.89142        -4.41659        -1.14378
C           1.64456        -4.70431         0.12323
Se          1.50368        -3.55697         0.80660
C           1.88961         2.39699         0.00103
N           1.06362         3.46572         0.00574
C           1.54464         4.73679        -0.00168
C           2.87175         4.99356        -0.00192
C           3.34611         6.35742         0.00199
N           2.58553         7.41789         0.01263
C           3.40074         8.50042         0.00059
C           4.66568         8.01414        -0.00636
S           4.58231         6.71175        -0.00511
C           3.78213         3.93494        -0.00596
N           5.12128         3.83620        -0.01208
S           5.44348         2.55877        -0.01275
N           4.35360         1.80536        -0.00921
C           3.28537         2.60132        -0.00445
H          -1.44005         1.75197         0.86525
H          -1.44662         1.77375        -0.85646
H          -3.12569        -0.06895         0.00687
H          -1.59544        -2.06138        -0.00138
H           2.07754        -2.35993        -2.06953
H           2.04083        -5.08514        -1.91562
H           1.57214        -5.65379         0.52105
H           0.87975         5.52604        -0.00728
H           3.11636         9.49246        -0.00262
H           5.53455         8.57097        -0.01167



