%chk=77_C21H13N5S3Si2.chk
%NProcShared=12
%Mem=8000MB
#B3LYP/6-31++G(d,p) opt scf=direct freq test

Geom opt of No.77 candidate from the CEPDB database with SMILE code of [SiH2]1ccc2c1c(sc2-c1ccc(cc1)-c1scc2[Se]ccc12)-c1cncc2nsnc12, HPC, 20131227, Shuo Dai, Gaussian09

0  1
Si         -1.24900         1.15800        -0.00400
H          -1.51127         1.97517        -1.13531
H          -1.50254         1.94626         1.14959
C          -2.09400        -0.04400         0.00200
C          -1.29200        -1.07500         0.00000
C          -0.01500        -0.66200        -0.00000
C           0.02100         0.71400         0.00200
C           1.34900         1.05800         0.00100
S           2.04100        -0.07100        -0.00000
C           1.24200        -1.07800        -0.00100
C           1.65524        -2.46161        -0.00293
C           2.99306        -2.79337        -0.35556
C           3.31948        -4.12944        -0.64003
C           2.49349        -5.08276        -0.32305
C           1.28175        -4.77994         0.31212
C           0.81405        -3.44334         0.32637
C           2.82557        -6.45500        -0.62608
S           2.20088        -7.44907        -0.10261
C           2.66557        -8.58744        -0.59422
C           3.65410        -8.26377        -1.48863
Se          4.56476        -8.72619        -2.36438
C           5.23551        -7.53827        -2.91009
C           4.68562        -6.49611        -2.34645
C           3.73252        -6.88953        -1.48731
C           1.88961         2.39699         0.00103
C           3.22766         2.58841         0.01174
N           3.77031         3.83439         0.02259
C           2.99776         4.94231         0.01098
C           1.59375         4.80662        -0.00554
N           0.56588         5.65396        -0.01905
S          -0.55954         4.95486        -0.03103
N          -0.30035         3.66318        -0.02739
C           1.03226         3.49894        -0.01058
H          -3.12569        -0.06895         0.00687
H          -1.59544        -2.06138        -0.00138
H           3.71682        -2.05917        -0.40188
H           4.21502        -4.35480        -1.10072
H           0.73335        -5.52659         0.76687
H          -0.16182        -3.23212         0.58730
H           2.34496        -9.53768        -0.35073
H           5.99685        -7.52904        -3.60673
H           4.94561        -5.51517        -2.53403
H           3.85310         1.76752         0.01168
H           3.43054         5.87918         0.01415



