%chk=31_C20H13N5S2Si.chk
%NProcShared=12
%Mem=8000MB
#B3LYP/6-31++G(d,p) opt scf=direct freq test

Geom opt of No.31 candidate from the CEPDB database with SMILE code of [SiH2]1C=c2c(cc3c4cocc4c4c5cnccc5sc4c3c2=C1)-c1cncc2nsnc12, HPC, 20131227, Shuo Dai, Gaussian09

0  1
Si          3.64112        -1.42336         1.69057
H           4.62346        -2.13474         0.78207
H           4.80849        -0.51251         2.01227
C           2.83698         0.49076         1.13030
C           3.44148         0.58829        -0.05910
C           4.76713         1.27849        -0.61332
C           5.67292         0.12200        -0.94484
C           5.10901        -0.26073        -2.25776
C           5.62681        -1.66291        -2.58670
C           7.14133        -1.97379        -2.44362
O           7.52353        -2.38179        -3.76658
C           6.71277        -1.50304        -4.62364
C           5.31596        -1.80531        -4.05935
C           3.83588        -1.26830        -4.25128
C           3.08192        -1.58103        -5.48118
C           3.43007        -1.56795        -6.95777
N           2.32186        -0.81618        -7.48631
C           1.02515        -1.55404        -7.16326
C           0.49626        -1.64381        -5.73073
C           1.57435        -0.88585        -5.13010
S           1.29794        -0.59795        -3.44517
C           3.02831        -0.18051        -3.51905
C           3.51116        -0.11829        -2.15919
C           3.03845        -0.56386        -0.85667
C           2.52610        -1.71403        -0.24074
C           5.46542         2.30735         0.13138
C           6.74359         2.79277        -0.17558
N           7.41162         3.73039         0.54676
C           6.83991         4.26609         1.67035
C           5.53258         3.89614         2.01735
N           4.80929         4.26943         3.08690
S           3.32865         3.53259         2.95044
N           3.52367         2.90802         1.45945
C           4.82460         2.97415         1.16367
H           1.75910         0.27234         1.07874
H           4.55814         1.85137        -1.54974
H           5.53750        -0.72947        -0.28748
H           6.75008         0.27302        -0.95480
H           5.44381         0.45531        -3.02886
H           5.07542        -2.42936        -2.03048
H           7.33088        -2.74416        -1.68065
H           7.83355        -1.15483        -2.21412
H           6.92323        -1.80282        -5.65070
H           7.10920        -0.49388        -4.44662
H           5.23772        -2.88269        -4.26059
H           3.41408        -2.07517        -3.60548
H           3.34382        -2.64417        -5.38962
H           3.39502        -2.56225        -7.44510
H           4.38099        -1.10529        -7.22620
H           2.42406         0.07252        -6.97684
H           1.07689        -2.58271        -7.51410
H           0.30823        -0.94989        -7.70060
H           0.47491        -2.59172        -5.16866
H          -0.51160        -1.20351        -5.63933
H           1.48007         0.16274        -5.48533
H           3.03299         0.83118        -3.97565
H           3.06191         0.91017        -2.07782
H           1.85294        -1.87764         0.59868
H           7.30052         2.44128        -1.05450
H           7.39818         4.98542         2.23699



