%chk=84_C23H12N4S4.chk
%NProcShared=12
%Mem=8000MB
#B3LYP/6-31++G(d,p) opt scf=direct freq test

Geom opt of No.84 candidate from the CEPDB database with SMILE code of C1ccc2csc(c12)-c1ccc(cn1)-c1sc(-c2cncc3nsnc23)c2cc[Se]c12, HPC, 20131227, Shuo Dai, Gaussian09

0  2
C          -1.24900         1.15800        -0.00400
C          -2.09400        -0.04400         0.00200
C          -1.29200        -1.07500         0.00000
C          -0.01500        -0.66200        -0.00000
C           1.24200        -1.07800        -0.00100
S           2.04100        -0.07100        -0.00000
C           1.34900         1.05800         0.00100
C           0.02100         0.71400         0.00200
C           1.88961         2.39699         0.00103
C           1.10007         3.51435         0.39130
C           1.55347         4.81227         0.10427
C           2.78735         5.00506        -0.25893
C           3.66916         3.92027        -0.35425
N           3.15616         2.60036        -0.36545
C           3.24915         6.33870        -0.56433
S           2.58935         7.44339        -0.18968
C           3.26091         8.50952        -0.66261
C           2.90203         9.89779        -0.49214
C           3.76146        10.85226        -0.91349
N           3.49107        12.17506        -0.75811
C           2.34386        12.59986        -0.18548
C           1.40499        11.65056         0.26981
N           0.21311        11.71379         0.86151
S          -0.22468        10.48005         1.06567
N           0.64977         9.60071         0.62099
C           1.69738        10.26704         0.10949
C           4.35236         8.02371        -1.33802
C           5.52732         8.47087        -2.09892
C           6.01236         7.22782        -2.87666
Se          5.48865         6.07669        -1.98915
C           4.30678         6.67960        -1.25516
H          -1.44005         1.75197         0.86525
H          -1.44662         1.77375        -0.85646
H          -3.12569        -0.06895         0.00687
H          -1.59544        -2.06138        -0.00138
H           1.53733        -2.06684        -0.00238
H           0.20264         3.37247         0.88070
H           0.90735         5.61326         0.18158
H           4.68650         4.08224        -0.41593
H           4.64543        10.56930        -1.36465
H           2.15599        13.60933        -0.08203
H           6.29174         8.81916        -1.43614
H           5.29033         9.28225        -2.75496
H           7.07949         7.20721        -2.95217



