%chk=66_C17H7N3OS2Se.chk
%NProcShared=12
%Mem=8000MB
#B3LYP/6-31++G(d,p) opt scf=direct freq test

Geom opt of No.66 candidate from the CEPDB database with SMILE code of [SiH2]1cc2c(ccc(-c3ncc(s3)-c3cccc4nsnc34)c2c1)-c1cncs1, HPC, 20131227, Shuo Dai, Gaussian09

0  1
Si         -2.91294        -0.48862         0.00974
H          -3.66809        -0.86440        -1.21686
H          -3.58836        -0.85541         1.28874
C          -1.88180         1.09079         0.01433
C          -0.38842         0.73832        -0.00577
C           0.69798         1.62408        -0.00143
C           2.02225         1.10131        -0.00098
C           2.29753        -0.26038        -0.01274
C           1.24555        -1.14410        -0.02392
C           1.59912        -2.56889         0.00291
N           2.74933        -3.19686        -0.09857
C           2.50354        -4.59125        -0.06398
C           1.17235        -4.95662         0.02425
S           0.34553        -3.58488         0.35161
C           0.35637        -6.15363         0.02924
C           0.98463        -7.39338         0.01197
C           0.25920        -8.59042         0.04269
C          -1.14730        -8.65101         0.09768
C          -1.85374        -7.43040         0.11858
N          -3.19084        -7.29942         0.17454
S          -3.51175        -5.67788         0.17921
N          -1.97521        -5.09671         0.09333
C          -1.11018        -6.13730         0.07762
C          -0.10826        -0.64228        -0.02509
C          -1.36852        -1.49641        -0.03985
C           0.51670         3.08341        -0.00391
C          -0.62421         3.86391         0.00226
N          -0.43764         5.23111        -0.00289
C           0.83830         5.47548        -0.01462
S           1.88277         4.14097        -0.02748
H          -2.14219         1.61989         0.93468
H          -2.16761         1.64162        -0.88420
H           2.90042         1.73621         0.00988
H           3.32910        -0.60905        -0.00416
H           3.34928        -5.26456        -0.11830
H           2.07269        -7.42716        -0.02003
H           0.83056        -9.51323         0.02430
H          -1.67883        -9.58964         0.12177
H          -1.45066        -2.06347         0.89063
H          -1.40761        -2.09198        -0.95555
H          -1.64343         3.51280         0.01194
H           1.24409         6.47879        -0.01692



