%chk=33_C16H9N5S2Se.chk
%NProcShared=12
%Mem=8000MB
#B3LYP/6-31++G(d,p) opt scf=direct freq test

Geom opt of No.33 candidate from the CEPDB database with SMILE code of [SiH2]1C=c2c3cc(sc3c3c4nsnc4c4ccc5nsnc5c4c3c2=C1)-c1ccccn1, HPC, 20131227, Shuo Dai, Gaussian09

0  1
Si          1.75638         0.98650        -0.89217
H           0.70463         0.36399        -1.86395
H           0.70358         1.86874        -0.02296
C           2.62520         0.37372         0.87609
C           1.95461        -0.77218         1.17077
C           0.54187        -1.08840         0.99612
C          -0.58658        -0.48285         0.33144
C          -1.78442        -1.06738         0.61021
S          -1.52838        -2.38537         1.58298
C           0.18753        -2.27724         1.55066
C           1.11266        -3.26379         2.14225
C           0.42856        -4.19529         2.96780
N          -0.89251        -4.41244         3.12331
S          -1.15377        -5.69209         4.07833
N           0.40047        -5.94711         4.46721
C           1.16484        -5.04204         3.83552
C           2.56084        -4.86106         3.98530
C           3.15641        -4.84033         5.22518
C           2.80164        -5.92651         5.97577
C           4.01134        -6.36883         5.58131
N           5.03698        -6.67274         6.39079
S           5.09938        -8.22416         5.82169
N           4.12187        -7.83870         4.08652
C           4.21491        -6.30301         3.84625
C           3.35497        -4.89682         2.88249
C           2.63563        -3.46235         1.92634
C           2.85535        -1.88776         0.76817
C           2.87759        -1.08916        -0.65988
C          -3.10846        -0.70174         0.16812
C          -4.05018        -1.69256        -0.05078
C          -5.20745        -1.35504        -0.70809
C          -5.46311        -0.01809        -0.95859
C          -4.54261         0.92959        -0.53966
N          -3.32494         0.61539        -0.06127
H           3.76227         0.33650         0.71918
H          -0.66182         0.37203        -0.31555
H           4.28824        -4.54830         5.06400
H           2.04446        -6.64577         5.55695
H           3.34890         0.04025        -1.04853
H          -3.86793        -2.71434         0.25741
H          -5.90010        -2.13345        -0.99726
H          -6.38516         0.26837        -1.44176
H          -4.78692         1.98685        -0.55690



