%chk=45_C24H12N4OS3.chk
%NProcShared=12
%Mem=8000MB
#B3LYP/6-31++G(d,p) opt scf=direct freq test

Geom opt of No.45 candidate from the CEPDB database with SMILE code of c1cc(oc1-c1ccc(-c2cncc3nsnc23)c2cscc12)-c1cncc2nsnc12, HPC, 20131227, Shuo Dai, Gaussian09

0  1
C          -1.30340         0.11671        -0.00146
C          -0.51367         1.25989        -0.00045
C           0.79971         0.83891        -0.00572
O           0.85184        -0.51160        -0.01670
C          -0.43722        -0.93406        -0.01191
C          -0.69011        -2.34121        -0.01774
C          -2.02280        -2.78675        -0.07350
C          -2.38300        -4.14436        -0.07298
C          -1.46184        -5.22528         0.01425
C          -1.92673        -6.60718        -0.01805
C          -3.28100        -6.98409         0.11617
N          -3.82453        -8.24162         0.15738
C          -3.01464        -9.33038         0.12805
C          -1.63648        -9.12758        -0.01627
N          -0.68266       -10.07397         0.01992
S           0.74952        -9.30875        -0.28970
N           0.17659        -7.79710        -0.60460
C          -1.10403        -7.74782        -0.20176
C          -0.11909        -4.75741         0.12426
C           0.99542        -5.47756         0.48638
S           2.45876        -4.66689         0.12515
C           1.62228        -3.18178         0.14386
C           0.25314        -3.36025         0.06617
C           2.05140         1.53889        -0.00117
C           3.33555         0.99116         0.00669
N           4.51805         1.69276         0.01724
C           4.52009         3.06145         0.01899
C           3.28428         3.73394         0.00930
N           3.08553         5.06266         0.00834
S           1.44647         5.30366        -0.00534
N           0.93424         3.74316        -0.00919
C           2.02314         2.95146        -0.00094
H          -2.38527         0.07541         0.00493
H          -0.87828         2.27008         0.00532
H          -2.83918        -2.06817        -0.12661
H          -3.45770        -4.31154        -0.14032
H          -4.06303        -6.22739         0.19615
H          -3.46677       -10.30631         0.19196
H           1.10042        -6.47103         0.87669
H           2.21644        -2.28692         0.18573
H           3.48032        -0.09107         0.00514
H           5.47106         3.57222         0.02715



