%chk=51_C20H6N4OS3Se2.chk
%NProcShared=12
%Mem=8000MB
#B3LYP/6-31++G(d,p) opt scf=direct freq test

Geom opt of No.51 candidate from the CEPDB database with SMILE code of [SiH2]1C(=Cc2cnc3c(c12)c1cscc1c1ccc2cscc2c31)c1nccc2nsnc12, HPC, 20131227, Shuo Dai, Gaussian09

0  1
Si          1.20191        -0.94812         0.19992
H           0.53576        -0.07667         1.22695
H           0.81415        -0.30660        -1.09574
C           2.97589         0.01540         0.05466
C           3.80301        -0.46661         1.03116
C           3.08658        -1.35060         1.92218
C           2.35637        -0.89330         3.02113
N           1.49326        -1.66799         3.71654
C           1.47309        -2.98710         3.49009
C           2.04931        -3.43998         2.26388
C           2.47639        -2.44155         1.29163
C           2.44926        -4.84628         2.44213
C           3.36582        -5.53237         1.66520
S           3.56834        -7.18492         2.13760
C           2.50708        -7.00495         3.46231
C           2.03916        -5.70907         3.56355
C           1.22801        -5.29855         4.64685
C           0.72736        -6.17272         5.70595
C          -0.08905        -5.73726         6.75816
C          -0.29805        -4.36734         6.69937
C          -1.09729        -3.74660         7.62722
S          -1.20129        -2.06472         7.33654
C          -0.18899        -2.17796         5.95574
C           0.22046        -3.46767         5.69214
C           0.99539        -3.86733         4.55222
C           3.40086         0.80798        -1.06667
N           3.21078         2.16998        -1.04957
C           3.80884         2.98549        -1.98091
C           4.66533         2.61258        -3.01447
C           4.92293         1.22906        -3.04700
N           5.73560         0.61203        -3.91863
S           5.73250        -0.99619        -3.50767
N           4.69272        -0.98581        -2.21565
C           4.29037         0.28964        -2.05282
H           4.86118        -0.35459         1.05258
H           2.23312         0.17432         3.20718
H           3.97023        -5.20583         0.83389
H           2.32003        -7.86244         4.10053
H           0.96134        -7.23673         5.68902
H          -0.50123        -6.40268         7.50454
H          -1.63267        -4.18601         8.45628
H           0.02153        -1.26584         5.41841
H           3.56950         4.04298        -1.85406
H           5.10400         3.31138        -3.71225



