%chk=4_C24H14N4S2Si2.chk
%NProcShared=12
%Mem=8000MB
#B3LYP/6-31++G(d,p) opt scf=direct freq test

Geom opt of No.4 candidate from the CEPDB database with SMILE code of c1c([Se]c2c1[nH]c1c2oc2ccc3nsnc3c12)-c1cncc2nsnc12, HPC, 20131227, Shuo Dai, Gaussian09

0  1
C           1.00706         0.02755        -0.09587
C           2.52706         0.02755        -0.09587
Se          3.18040        -1.76571         0.35023
C           2.53974        -2.26610         2.09185
C           2.54664        -3.54758         2.61486
N           2.10990        -3.48035         3.92025
H           2.01898        -4.25850         4.54171
C           1.81630        -2.16074         4.23524
C           2.08425        -1.41965         3.09232
O           1.69565         0.25240         3.54197
C           1.18602        -0.02116         5.21947
C           0.73632         0.80791         6.22616
C           0.41075         0.26958         7.45559
C           0.54061        -1.09658         7.66039
N           0.23288        -1.59689         8.81872
S          -0.29049        -0.63801         9.99293
N           1.09128        -3.19733         6.90503
C           0.98296        -1.92367         6.67525
C           1.32635        -1.40929         5.40201
C           3.02106         0.41339        -1.43879
C           3.45598        -0.52135        -2.31300
N           3.84384        -0.19389        -3.57371
C           3.80179         1.08104        -4.01784
C           3.35192         2.10053        -3.15285
N           3.18764         3.41850        -3.25595
S           2.72446         3.87930        -2.10330
N           2.57662         2.89585        -1.23923
C           2.95317         1.75137        -1.83208
H           0.50432        -0.21423        -1.00894
H           0.31959         0.81551         0.13084
H           2.88373         0.72793         0.63017
H           0.64389         1.82254         6.06183
H           0.07320         0.87925         8.21676
H           3.49450        -1.50881        -2.01555
H           4.09598         1.30715        -4.98083



