%chk=56_C23H12N4OS3.chk
%NProcShared=12
%Mem=8000MB
#B3LYP/6-31++G(d,p) opt scf=direct freq test

Geom opt of No.56 candidate from the CEPDB database with SMILE code of c1scc2c(cccc12)-c1sc(-c2nccc3nsnc23)c2nccnc12, HPC, 20131227, Shuo Dai, Gaussian09

0  1
C          -1.45753         1.57791         0.12933
S          -2.75181         0.47864         0.02558
C          -1.65799        -0.81695         0.20268
C          -0.33502        -0.48482         0.06160
C           0.80025        -1.32630         0.01198
C           2.01247        -0.55787        -0.08909
C           2.08184         0.85967        -0.10609
C           0.94717         1.67725        -0.02460
C          -0.23896         0.95139         0.03906
C           0.79097        -2.78360         0.01322
S           2.29313        -3.56674        -0.26026
C           1.64033        -5.13171        -0.13903
C           2.56117        -6.23101        -0.28716
N           3.89117        -5.95402        -0.50370
C           4.80084        -6.95130        -0.65246
C           4.53256        -8.31271        -0.60759
C           3.18137        -8.63357        -0.38671
N           2.67444        -9.87538        -0.30491
S           1.04800        -9.71895        -0.04024
N           0.94508        -8.09406        -0.01964
C           2.16096        -7.57637        -0.21993
C           0.29297        -5.07778         0.08320
N          -0.53959        -6.15204         0.21259
C          -1.82710        -5.84986         0.42093
C          -2.29469        -4.56488         0.50952
N          -1.49153        -3.49641         0.40860
C          -0.19273        -3.74735         0.17873
H          -1.69181         2.62070         0.22159
H          -2.18262        -1.71699         0.39541
H           2.98355        -1.05664        -0.16095
H           3.06718         1.31880        -0.18636
H           1.00424         2.75313        -0.02352
H           5.81669        -6.59540        -0.82068
H           5.28594        -9.07030        -0.73095
H          -2.50199        -6.69297         0.52171
H          -3.34182        -4.34177         0.66634



