%chk=13_C20H9N5OS2.chk
%NProcShared=12
%Mem=8000MB
#B3LYP/6-31++G(d,p) opt scf=direct freq test

Geom opt of No.13 candidate from the CEPDB database with SMILE code of [SiH2]1C=c2ccc3c4ccccc4c4cc(cnc4c3c2=C1)-c1cncc2nsnc12, HPC, 20131227, Shuo Dai, Gaussian09

0  1
Si          0.75064         0.51094        -0.68889
H          -0.11368         1.10558         0.39551
H           0.15592        -0.23527        -1.80446
C           2.77134        -0.37695        -0.73996
C           3.61418         0.66515        -0.70812
C           5.04957         0.80483        -0.51166
C           5.62033         1.96996        -0.79005
C           4.87672         3.21027        -1.19167
C           5.65614         4.35628        -1.73625
C           7.10257         4.48174        -1.82215
C           7.80834         5.62105        -2.28102
C           7.11799         6.71315        -2.72060
C           5.72979         6.62911        -2.69294
C           4.96756         5.47098        -2.20151
C           3.53511         5.40550        -2.15893
C           2.86993         6.52481        -2.67294
C           1.49609         6.63698        -2.71992
C           0.83070         5.51016        -2.26015
N           1.39689         4.37403        -1.72559
C           2.75222         4.29309        -1.60948
C           3.43153         3.19213        -1.01111
C           2.86974         1.85713        -0.35144
C           1.92205         1.39223         0.53729
C           0.87590         7.86805        -3.21749
C           1.35839         9.17860        -2.99814
N           0.83383        10.37172        -3.43973
C          -0.30160        10.38898        -4.19317
C          -0.89928         9.15531        -4.51274
N          -2.01216         8.97195        -5.24113
S          -2.26044         7.33387        -5.31924
N          -0.97113         6.78856        -4.43807
C          -0.29029         7.86959        -4.02035
H           2.99208        -1.23757        -0.09273
H           5.62658        -0.03230        -0.12878
H           6.70620         2.05140        -0.76354
H           7.73903         3.67277        -1.48677
H           8.89789         5.64956        -2.27894
H           7.62112         7.61432        -3.07480
H           5.25941         7.53639        -3.06191
H           3.41322         7.37799        -3.06487
H          -0.25703         5.49898        -2.27336
H           1.78631         0.35256         1.05609
H           2.25955         9.33589        -2.39912
H          -0.68906        11.34784        -4.51044



