%chk=82_C19H10N4S3Se.chk
%NProcShared=12
%Mem=8000MB
#B3LYP/6-31++G(d,p) opt scf=direct freq test

Geom opt of No.82 candidate from the CEPDB database with SMILE code of [SiH2]1C=c2ccc3c4nsnc4c4c(sc5cc(-c6cncs6)c6cscc6c45)c3c2=C1, HPC, 20131227, Shuo Dai, Gaussian09

0  1
Si          0.67817         0.72676        -0.69009
H           0.34151         1.50563         0.52888
H           0.37008        -0.31571        -1.61346
C           2.84308        -0.15335        -0.05219
C           3.58148         0.65798        -0.66526
C           4.95528         0.80846        -0.67253
C           5.62019         1.72769        -1.29265
C           4.67933         2.62616        -1.89006
C           5.40417         3.58109        -2.56348
N           6.63471         3.69248        -2.63343
S           8.02968         3.78670        -2.67648
N           6.86096         5.17859        -3.63456
C           5.40924         4.70453        -3.32608
C           3.86578         4.82992        -3.42536
C           2.97973         3.74568        -2.65799
S           1.40967         4.17324        -3.00717
C           1.75553         5.53042        -3.92591
C           0.67193         6.22738        -4.42059
C           0.91820         7.31537        -5.19299
C          -0.15877         8.04769        -5.70296
C          -1.34673         7.66825        -6.26250
N          -2.10712         8.73751        -6.69387
C          -1.45836         9.83958        -6.40815
S          -0.08765         9.71835        -5.48304
C           2.24021         7.67363        -5.39604
C           2.57728         8.76201        -6.16656
S           4.25669         9.00928        -6.26423
C           4.56174         7.52541        -5.25173
C           3.35844         6.99488        -4.90298
C           3.09471         5.81153        -4.10370
C           3.21909         2.48431        -1.71667
C           2.31159         1.18216        -0.72422
C           1.71167        -0.15017         0.36632
H           3.40873        -0.81165         0.65289
H           5.43034         0.03472        -0.15318
H           6.70821         1.71341        -1.27820
H          -0.34381         5.91133        -4.20469
H          -1.66124         6.63763        -6.37916
H          -1.67111        10.86748        -6.58507
H           1.88136         9.41881        -6.66934
H           5.51828         7.09829        -4.95111
H           0.77162        -0.98208         0.92232



