%chk=43_C22H12N4S4.chk
%NProcShared=12
%Mem=8000MB
#B3LYP/6-31++G(d,p) opt scf=direct freq test

Geom opt of No.43 candidate from the CEPDB database with SMILE code of c1csc(c1)-c1ccc([nH]1)-c1ncc(-c2nccc3nsnc23)c2nsnc12, HPC, 20131227, Shuo Dai, Gaussian09

0  1
C          -1.27910         0.06890        -0.00011
C          -0.63058         1.28141         0.00093
S           1.05503         1.11626         0.00142
C           0.94794        -0.59080        -0.00341
C          -0.36510        -1.02755         0.00108
C           2.14902        -1.35301        -0.00980
C           3.46912        -0.93210        -0.01415
C           4.29475        -2.06507        -0.01231
C           3.46007        -3.15967        -0.01249
N           2.16950        -2.70634        -0.01402
H           1.35354        -3.32364        -0.01569
C           3.77923        -4.54324        -0.01051
N           5.07976        -4.90764        -0.00582
C           5.40454        -6.22944        -0.00244
C           4.52253        -7.32915        -0.00033
C           4.98959        -8.70198         0.00438
N           6.35626        -8.90933         0.02481
C           6.89013       -10.16938         0.03348
C           6.19361       -11.37025         0.02827
C           4.80167       -11.21548         0.00613
N           3.91655       -12.22659        -0.00142
S           2.41101       -11.54914        -0.03117
N           2.84147        -9.97857        -0.04685
C           4.17366        -9.86917        -0.01145
C           3.15303        -6.93079        -0.00078
N           2.05030        -7.68903         0.01154
S           0.70773        -6.77006        -0.01308
N           1.43117        -5.29711        -0.01810
C           2.76549        -5.51264        -0.01033
H          -2.35649        -0.02577        -0.00128
H          -1.04510         2.27532         0.00137
H          -0.67448        -2.06749         0.00267
H           3.80457         0.09184        -0.01566
H           5.37334        -2.11129        -0.01087
H           6.48697        -6.38205        -0.00086
H           7.97964       -10.18654         0.04590
H           6.65686       -12.34201         0.03736



