%chk=89_C21H8N6OS3.chk
%NProcShared=12
%Mem=8000MB
#B3LYP/6-31++G(d,p) opt scf=direct freq test

Geom opt of No.89 candidate from the CEPDB database with SMILE code of [SiH2]1C=c2c(cc3c4cscc4c4c(sc5ccc6nsnc6c45)c3c2=C1)-c1ncncn1, HPC, 20131227, Shuo Dai, Gaussian09

0  1
Si          2.60105         0.07221        -0.21318
H           2.51863         1.07882        -1.23205
H           2.61538        -1.36403         0.16987
C           0.62365         0.76598         0.97679
C           1.15537         1.29624         2.00953
C           0.61459         1.90370         3.13126
C           1.32871         2.37791         4.12771
C           2.72169         2.15270         3.88345
C           3.49972         2.67697         4.92621
C           3.12046         3.24665         5.98954
S           2.61571         3.93848         7.23569
C           4.81976         3.49928         6.63563
C           4.76607         2.81708         5.32661
C           5.52815         2.20328         4.25301
C           4.71341         1.59704         3.06570
S           5.90653         1.02638         2.05417
C           7.23099         1.45044         3.01250
C           8.48538         1.12098         2.52779
C           9.58723         1.44120         3.26425
C           9.40917         2.08951         4.47880
N          10.46019         2.42442         5.23687
S           9.83777         3.16537         6.57727
N           8.13817         3.07850         6.21727
C           8.11085         2.46193         5.03869
C           6.94138         2.08939         4.19546
C           3.20714         1.42910         2.68101
C           2.14750         0.66164         1.28704
C           0.94264        -0.00856         0.16824
C          -0.81102         2.02348         3.12113
N          -1.47176         1.22559         3.95039
C          -2.77378         1.22395         3.72426
N          -3.40957         1.89364         2.76022
C          -2.61914         2.60844         1.96393
N          -1.31221         2.71498         2.08820
H          -0.49574         0.67921         1.05858
H           0.85997         2.86491         4.98098
H           3.34273         3.87189         7.15882
H           5.76339         3.69791         7.12393
H           8.57955         0.61395         1.57359
H          10.56911         1.20282         2.92250
H           0.49056        -0.58089        -0.99313
H          -3.38151         0.62707         4.39467
H          -3.09040         3.16246         1.15919



