%chk=37_C22H10N4S3SeSi.chk
%NProcShared=12
%Mem=8000MB
#B3LYP/6-31++G(d,p) opt scf=direct freq test

Geom opt of No.37 candidate from the CEPDB database with SMILE code of C1C(=Cc2c1c1c3nsnc3c3C=C[SiH2]c3c1c1nsnc21)c1scc2[SiH2]C=Cc12, HPC, 20131227, Shuo Dai, Gaussian09

0  1
C          -2.57345        -2.70524       -10.70623
C          -4.12038        -2.53247       -10.94842
C          -4.75563        -3.18416        -9.95374
C          -3.77393        -3.55518        -8.89235
C          -2.61754        -4.05114        -9.58477
C          -1.77217        -4.87665        -8.67671
C          -1.76195        -6.37846        -8.51036
N          -2.41517        -7.33498        -9.23677
S          -2.00131        -8.87217        -8.63960
N          -1.04275        -8.46495        -7.34131
C          -1.03063        -7.14745        -7.43156
C          -0.32408        -6.29602        -6.51875
C           0.63719        -6.69714        -5.46232
C           0.32975        -6.80640        -4.10213
Si         -0.16332        -4.74160        -4.40010
H          -1.05525        -3.66981        -4.00195
H           1.17768        -4.11302        -4.10435
C          -0.66649        -4.97079        -6.48990
C          -1.42908        -4.25916        -7.42478
C          -1.98649        -2.98092        -7.27770
N          -1.49651        -1.98293        -6.51444
S          -2.24863        -0.57506        -7.02522
N          -3.43131        -1.19909        -8.03205
C          -3.18688        -2.50845        -7.99497
C          -4.94005        -2.06333       -12.01440
S          -5.62524        -3.26805       -13.09211
C          -6.61317        -2.13936       -13.91363
C          -6.39706        -0.90707       -13.39045
Si         -7.05733         0.75757       -13.78740
H          -8.52530         0.74503       -13.56594
H          -6.55250         1.09142       -15.14218
C          -6.03353         1.47365       -12.38133
C          -5.32181         0.50600       -11.75155
C          -5.47701        -0.81926       -12.31083
H          -2.29604        -1.74083       -10.22259
H          -2.02164        -2.74852       -11.64761
H          -5.76422        -3.56981        -9.98416
H           1.56084        -6.13223        -5.51072
H           0.54664        -7.91915        -4.40376
H          -7.26428        -2.44611       -14.71992
H          -6.07870         2.53277       -12.17887
H          -4.68596         0.71771       -10.89911



