%chk=40_C20H7N7S3Se.chk
%NProcShared=12
%Mem=8000MB
#B3LYP/6-31++G(d,p) opt scf=direct freq test

Geom opt of No.40 candidate from the CEPDB database with SMILE code of [SiH2]1ccc2csc(-c3ccc([nH]3)-c3ncc(s3)-c3cncc4nsnc34)c12, HPC, 20131227, Shuo Dai, Gaussian09

0  1
Si         -1.57476         1.39182         0.00496
H          -1.68214         2.22667        -1.22243
H          -1.67515         2.21041         1.24323
C          -2.32643        -0.30450         0.00164
C          -1.38128        -1.26922        -0.00031
C          -0.03554        -0.78003        -0.00169
C           1.18524        -1.40059        -0.00227
S           2.46380        -0.22956        -0.00276
C           1.35985         1.10141        -0.00542
C           1.74579         2.46465        -0.00615
C           1.01999         3.64392        -0.02300
C           1.91002         4.72701        -0.00321
C           3.15706         4.17519         0.02044
N           3.05375         2.81385         0.01493
H           3.83027         2.16712         0.02807
C           4.40449         4.78976         0.04467
N           4.58628         6.08778         0.04576
C           5.94037         6.31105         0.06398
C           6.73514         5.17617         0.07698
S           5.75991         3.79654         0.07068
C           8.15121         4.95498         0.09697
C           8.76861         3.69027         0.10511
N          10.10127         3.42277         0.13065
C          10.99434         4.44679         0.15016
C          10.51447         5.77254         0.14124
N          11.24734         6.89596         0.15538
S          10.17931         8.16565         0.13488
N           8.74824         7.34480         0.10871
C           9.04828         6.03395         0.11377
C           0.09164         0.62172        -0.00200
H          -3.39734        -0.40595         0.00312
H          -1.61104        -2.32535        -0.00074
H           1.42899        -2.45237        -0.00180
H          -0.04818         3.75850        -0.04512
H           1.69618         5.78627        -0.00589
H           6.27765         7.34024         0.06627
H           8.17588         2.77245         0.09108
H          12.03844         4.18122         0.17107



