%chk=10_C22H12N6S.chk
%NProcShared=12
%Mem=8000MB
#B3LYP/6-31++G(d,p) opt scf=direct freq test

Geom opt of No.10 candidate from the CEPDB database with SMILE code of [SiH2]1cccc1-c1ncc(s1)-c1cnc(-c2scc3ccoc23)c2nsnc12, HPC, 20131227, Shuo Dai, Gaussian09

0  1
Si          0.25346         1.49245        -0.14567
H           0.31018         2.30699         1.09732
H           0.07984         2.18427        -1.45252
C           1.47164         0.10617        -0.17420
C           0.86474        -1.09675        -0.18748
C          -0.59238        -1.07379        -0.09957
C          -1.09371         0.16309         0.07577
C          -2.14182         0.40160         0.98813
N          -2.60940        -0.43096         1.90176
C          -3.17200         0.29479         2.93390
C          -3.09159         1.66354         2.78023
S          -2.79131         1.98199         1.12908
C          -3.29454         2.77616         3.66534
C          -2.92322         4.08907         3.35780
N          -3.11272         5.17963         4.12651
C          -3.71428         5.08058         5.33996
C          -3.82614         6.30038         6.08219
S          -4.17668         6.38220         7.76752
C          -4.03416         8.09948         7.81676
C          -3.72677         8.53632         6.58550
C          -3.44628         9.71695         5.87515
C          -3.20353         9.31154         4.55636
O          -3.30887         7.95022         4.36109
C          -3.61925         7.54938         5.62762
C          -4.12263         3.80582         5.80401
N          -4.72451         3.47647         6.96198
S          -4.94022         1.84288         6.97032
N          -4.30715         1.46635         5.49501
C          -3.88891         2.61517         4.93329
H           2.51996         0.32084        -0.06274
H           1.39786        -2.02871        -0.06142
H          -1.14893        -1.97092         0.15511
H          -3.55091        -0.23389         3.80137
H          -2.42800         4.34462         2.42041
H          -4.18451         8.60922         8.75695
H          -3.41166        10.73078         6.24019
H          -2.94773         9.86307         3.66089



