%chk=72_C21H9N7OS3.chk
%NProcShared=12
%Mem=8000MB
#B3LYP/6-31++G(d,p) opt scf=direct freq test

Geom opt of No.72 candidate from the CEPDB database with SMILE code of [SiH2]1C=c2ccc3c4nsnc4c4c(cnc5cc(-c6nccs6)c6=C[SiH2]C=c6c45)c3c2=C1, HPC, 20131227, Shuo Dai, Gaussian09

0  1
Si         -3.98177        -0.96351        -3.25792
H          -3.68931        -2.20929        -2.58215
H          -3.41231         0.48245        -3.08183
C          -5.70894        -1.63603        -4.57878
C          -5.25993        -1.39421        -5.79914
C          -5.91454        -1.37318        -7.10566
C          -5.18252        -1.52384        -8.11926
C          -3.70818        -1.47359        -8.04081
C          -3.08886        -1.77160        -9.27632
N          -3.78375        -1.98370       -10.41507
S          -2.71880        -2.26136       -11.60972
N          -1.31138        -2.10593       -10.74829
C          -1.62064        -1.84450        -9.45872
C          -0.74151        -1.63146        -8.33328
C          -1.49998        -1.26973        -7.02756
C          -0.61656        -1.10706        -5.96440
N           0.74934        -1.13529        -6.03480
C           1.37283        -1.38062        -7.22749
C           2.85614        -1.30157        -7.10607
C           3.65323        -1.33930        -8.18515
C           5.07104        -1.39327        -8.08397
N           5.90293        -0.52749        -8.63192
C           7.17918        -1.03085        -8.64204
C           7.32123        -2.29306        -8.11556
S           5.82191        -2.85086        -7.51242
C           3.01610        -1.44858        -9.46737
C           3.67545        -1.16647       -10.61760
Si          3.95725        -3.07843       -11.33944
H           4.99874        -3.34616       -10.28621
H           5.00600        -2.40478       -12.21265
C           1.85064        -2.76566       -10.77736
C           1.72364        -2.11448        -9.58184
C           0.71325        -1.70564        -8.44901
C          -2.98887        -1.09494        -6.87446
C          -4.00736        -0.71045        -5.60796
C          -4.52771         0.16426        -4.61047
H          -6.74322        -1.26085        -4.42873
H          -7.00737        -1.41124        -7.22826
H          -5.60642        -1.76708        -9.11905
H          -0.96324        -0.92136        -4.95001
H           3.28296        -1.19202        -6.11617
H           7.97152        -0.42222        -9.05611
H           8.21023        -2.89567        -8.03339
H           3.24439        -1.04281       -11.61558
H           1.14502        -2.67573       -11.59745
H          -5.37687         0.08974        -3.65517



