%chk=98_C25H11N3OSSe2.chk
%NProcShared=12
%Mem=8000MB
#B3LYP/6-31++G(d,p) opt scf=direct freq test

Geom opt of No.98 candidate from the CEPDB database with SMILE code of [SiH2]1C=c2c(cc3c4nsnc4c4c5[SiH2]C=Cc5c5cscc5c4c3c2=C1)-c1cncs1, HPC, 20131227, Shuo Dai, Gaussian09

0  1
Si          1.79433         0.37789         9.48383
H           2.37544         0.47721        10.83432
H           1.78034        -0.93091         8.73004
C          -0.14978         0.58179         9.56829
C          -0.46025         1.86233         9.89160
C          -1.91133         2.19091        10.04330
C          -2.43014         3.04119         9.14144
C          -1.55746         3.42256         8.05152
C          -1.46663         2.41617         7.02493
N          -2.20380         1.30064         6.90004
S          -1.30963         0.27177         5.95226
N          -0.12699         1.31242         5.40741
C          -0.36519         2.49516         6.01149
C           0.26101         3.73618         5.87528
C           0.84263         4.28904         4.69436
Si          1.99771         2.92504         3.31182
H           1.61412         3.36784         1.93312
H           3.65467         2.86954         3.24121
C           2.99859         3.28278         4.96791
C           3.08940         4.65760         4.97948
C           1.74668         5.36593         4.88536
C           1.28682         6.43697         5.77391
C           1.53599         7.70565         5.69351
S           0.61020         8.52847         6.91248
C           0.02912         7.00645         7.55364
C           0.51898         5.89629         6.85960
C           0.22122         4.53135         7.09532
C          -0.28818         3.96088         8.28601
C           0.46685         2.79313         9.07237
C           1.65014         2.18043         8.75225
C          -2.89666         1.58123        10.87894
C          -3.80010         2.21269        11.71844
N          -4.70888         1.41207        12.37286
C          -4.52272         0.16872        11.99289
S          -3.31357        -0.09147        10.80406
H          -0.22333         0.40620         8.48492
H          -3.48205         3.27520         9.02270
H           2.44821         2.31458         5.07840
H           3.49737         5.06541         4.02793
H           2.14944         8.30972         4.98149
H          -0.69269         7.08911         8.36626
H           2.38493         2.38112         7.98786
H          -3.82543         3.28462        11.87002
H          -5.10634        -0.64517        12.40317



