%chk=35_C20H10N4S4.chk
%NProcShared=12
%Mem=8000MB
#B3LYP/6-31++G(d,p) opt scf=direct freq test

Geom opt of No.35 candidate from the CEPDB database with SMILE code of C1ccc2csc(c12)-c1cnc(-c2cnc(s2)-c2scc3ccsc23)c2nsnc12, HPC, 20131227, Shuo Dai, Gaussian09

0  1
C          -1.37992         1.09816         0.00350
C          -2.20068        -0.17387         0.00426
C          -1.41305        -1.25957         0.00074
C          -0.04966        -0.86716        -0.00135
C           1.14857        -1.49026        -0.00265
S           2.40215        -0.32494        -0.00380
C           1.28848         1.01224        -0.00220
C           0.00336         0.53802        -0.00038
C           1.77687         2.37056        -0.00169
C           3.13061         2.68881         0.01064
N           3.62154         3.93669         0.01271
C           2.79442         5.02856         0.00196
C           3.37253         6.31855         0.00444
C           2.93600         7.62162        -0.00590
N           3.95167         8.57695         0.01853
C           5.11164         7.94995         0.04076
S           5.01573         6.28083         0.01698
C           6.41913         8.50540         0.07754
S           6.73474        10.18539         0.08742
C           8.44231         9.94156         0.13050
C           8.70856         8.61372         0.13717
C           9.88163         7.79089         0.16725
C           9.62444         6.41852         0.15734
S           7.98218         5.95804         0.11865
C           7.59799         7.77871         0.10849
C           1.42853         4.86722        -0.00982
N           0.50272         5.84137        -0.01900
S          -0.95484         5.10018        -0.03548
N          -0.43971         3.54425        -0.02974
C           0.89865         3.50057        -0.01332
H          -1.58835         1.67445         0.91159
H          -1.59548         1.67244        -0.90401
H          -3.28165        -0.15019         0.00540
H          -1.74306        -2.28632        -0.00077
H           1.39216        -2.54327        -0.00263
H           3.91676         1.93186         0.01920
H           1.89987         7.93675        -0.02802
H           9.08820        10.80254         0.14665
H          10.89783         8.14720         0.19500
H          10.31783         5.59082         0.17242



