%chk=15_C21H14N4S2Si.chk
%NProcShared=12
%Mem=8000MB
#B3LYP/6-31++G(d,p) opt scf=direct freq test

Geom opt of No.15 candidate from the CEPDB database with SMILE code of C1C=Cc2sc3c(cnc4cc([nH]c34)-c3cncc4nsnc34)c12, HPC, 20131227, Shuo Dai, Gaussian09

0  1
C           2.80883         0.42794         1.02795
C           2.49565        -0.37680        -0.23285
C           3.18647        -1.49678         0.08255
C           2.60255        -1.81991         1.32342
S           1.32556        -2.89091         1.14444
C           0.87976        -2.66179         2.71491
C           1.58708        -1.66841         3.37996
C           1.53151        -1.99644         4.82210
N           0.70771        -3.02674         5.39781
C          -0.05703        -3.81010         4.60352
C          -1.02055        -4.89096         4.71339
C          -1.43812        -5.29598         3.42893
N          -0.69357        -4.52608         2.58099
H          -0.73279        -4.57887         1.55237
C           0.04685        -3.61238         3.23760
C          -2.41784        -6.27403         2.93211
C          -3.21564        -7.08195         3.74858
N          -4.16040        -8.01277         3.37287
C          -4.42695        -8.24787         2.05600
C          -3.71190        -7.50739         1.09656
N          -3.84225        -7.59952        -0.23730
S          -2.77425        -6.51226        -0.88829
N          -2.09744        -5.87493         0.48961
C          -2.67911        -6.49070         1.54069
C           2.56022        -0.80688         2.31369
H           2.33422         1.41104         0.94723
H           3.88913         0.62425         0.75401
H           1.39176        -0.39544        -0.32318
H           4.26655        -1.42738         0.25811
H           2.14369        -1.54227         5.60511
H          -1.41352        -5.33642         5.62285
H          -3.11911        -7.00437         4.83073
H          -5.17551        -8.99115         1.81349



