%chk=94_C20H9N5OSSe.chk
%NProcShared=12
%Mem=8000MB
#B3LYP/6-31++G(d,p) opt scf=direct freq test

Geom opt of No.94 candidate from the CEPDB database with SMILE code of [SiH2]1cccc1-c1sc(-c2ccc(cn2)-c2cncc3nsnc23)c2nccnc12, HPC, 20131227, Shuo Dai, Gaussian09

0  1
Si          0.37538         1.63789        -0.17325
H           0.48417         2.34444         1.12574
H           0.16004         2.28464        -1.49328
C           1.50569         0.17477        -0.19505
C           0.83126        -0.98498        -0.22460
C          -0.62561        -0.85745        -0.16410
C          -1.04922         0.41541         0.05524
C          -2.04599         0.77081         1.00788
S          -2.99293        -0.45720         1.70442
C          -3.26370         0.45861         3.13016
C          -3.78575        -0.27753         4.25393
C          -3.46522        -1.61040         4.38267
C          -4.26798        -2.37937         5.17505
C          -5.26082        -1.80524         5.96329
C          -5.37125        -0.41453         5.88238
N          -4.69459         0.35497         5.00898
C          -6.09044        -2.62685         6.83659
C          -7.06840        -2.11783         7.70344
N          -7.84128        -2.80801         8.59548
C          -7.71697        -4.15741         8.71680
C          -6.80292        -4.82620         7.88911
N          -6.56372        -6.14803         7.87124
S          -5.41267        -6.41044         6.71484
N          -5.18356        -4.86749         6.20440
C          -5.97991        -4.04981         6.91992
C          -3.02342         1.77603         2.91117
N          -3.30504         2.78398         3.79495
C          -2.88791         3.98235         3.33018
C          -2.20888         4.17591         2.12688
N          -1.91056         3.19796         1.22965
C          -2.34676         1.97521         1.65031
H           2.56056         0.33089        -0.05280
H           1.30739        -1.94992        -0.08631
H          -1.19193        -1.76178         0.04201
H          -2.69619        -2.11023         3.80427
H          -4.06399        -3.43528         5.10394
H          -6.02439         0.17271         6.51913
H          -7.28593        -1.04914         7.72379
H          -8.33344        -4.65840         9.44496
H          -3.12225         4.82898         3.96956
H          -1.86504         5.16637         1.84922



