%chk=28_C22H14N4SSi.chk
%NProcShared=12
%Mem=8000MB
#B3LYP/6-31++G(d,p) opt scf=direct freq test

Geom opt of No.28 candidate from the CEPDB database with SMILE code of [SiH2]1C=c2c(cc3c4nsnc4c4c5sccc5c5nsnc5c4c3c2=C1)-c1cccs1, HPC, 20131227, Shuo Dai, Gaussian09

0  1
Si          0.68531        -0.17193        -0.68738
H          -0.00325         0.78939        -1.57026
H           0.31400        -1.58451        -0.38446
C           2.61158         0.23199        -1.26269
C           3.27591        -0.68707        -0.52049
C           4.72809        -0.87172        -0.82134
C           5.58140        -0.45384         0.08953
C           5.03089         0.31507         1.18144
C           5.20301         1.68678         0.96162
N           5.76729         2.19675        -0.14984
S           5.99335         3.78249         0.15823
N           5.09040         3.92291         1.55822
C           4.63120         2.69672         1.88491
C           3.76752         2.23641         2.94670
C           3.15592         3.00348         3.95067
S           3.25356         4.70414         4.22637
C           2.25054         4.62129         5.60678
C           1.81077         3.34779         5.88354
C           2.32407         2.45050         4.92982
C           2.03477         1.02582         4.95544
N           1.27397         0.41983         5.85793
S           1.31340        -1.18875         5.36814
N           2.29114        -1.05611         4.02746
C           2.62512         0.24801         3.91011
C           3.45076         0.83840         2.92020
C           3.85832         0.01017         1.88012
C           2.78969        -0.40863         0.91105
C           1.49718         0.04512         0.97232
C           5.33606        -1.50155        -1.95865
C           6.22317        -1.05275        -2.93809
C           6.68002        -2.12231        -3.78070
C           6.16768        -3.33216        -3.38074
S           5.15519        -3.20609        -2.02857
H           2.73786         1.26959        -0.85621
H           6.66145        -0.38443        -0.05984
H           2.04016         5.53057         6.14679
H           1.16992         3.09486         6.71956
H           0.95635         0.65090         1.68716
H           6.56131        -0.02483        -3.06975
H           7.35351        -2.02182        -4.62561
H           6.32674        -4.31052        -3.80269



