%chk=69_C23H14N4S3Si.chk
%NProcShared=12
%Mem=8000MB
#B3LYP/6-31++G(d,p) opt scf=direct freq test

Geom opt of No.69 candidate from the CEPDB database with SMILE code of C1C=c2ccc3ncc4c5ncc(cc5c5cscc5c4c3c2=C1)-c1nccc2nsnc12, HPC, 20131227, Shuo Dai, Gaussian09

0  1
C           1.55583        -0.75040        -0.09716
C           2.56089        -0.24531         0.83356
C           3.52291        -1.06681         0.46268
C           4.51129        -1.25294         1.42439
C           4.92286        -2.48107         1.20667
C           6.13525        -2.23000         0.51433
N           7.08880        -2.65762         1.44170
C           8.40262        -2.48615         1.31446
C           8.92129        -2.08962         0.15094
C          10.52361        -2.24615         0.34249
N          11.32060        -2.56225         1.48861
C          12.73390        -2.58498         1.51272
C          13.54035        -2.33932         0.42626
C          12.80903        -2.09458        -0.72873
C          11.32142        -2.03689        -0.76446
C          10.47679        -1.77097        -1.87113
C          11.12039        -1.60174        -3.08539
S          10.00834        -1.38933        -4.34540
C           8.64588        -1.49646        -3.31107
C           8.90640        -1.59383        -1.97295
C           7.77315        -1.64541        -0.98497
C           6.02646        -1.47139        -0.69400
C           4.21607        -0.96114        -0.93223
C           2.81374        -0.34047        -1.28193
C          15.00472        -2.36943         0.45713
N          15.72503        -1.19346         0.43651
C          17.10204        -1.19699         0.44299
C          17.94162        -2.30777         0.45184
C          17.24944        -3.53275         0.45172
N          17.81716        -4.74966         0.44859
S          16.57458        -5.85146         0.44321
N          15.26405        -4.83581         0.44666
C          15.74600        -3.58083         0.45488
H           0.79456        -0.18358         0.56899
H           0.71957        -0.77625        -0.80851
H           2.87937         0.82316         0.74368
H           5.15000        -0.34504         1.24708
H           4.40136        -3.35942         0.80833
H           8.98004        -2.77294         2.20166
H          13.21703        -2.80274         2.47555
H          13.40046        -1.92458        -1.63055
H          12.18199        -1.60080        -3.33483
H           7.68188        -1.47177        -3.77458
H           2.36337         0.73354        -1.29913
H          17.54914        -0.20014         0.43954
H          19.01999        -2.24198         0.45536



