%chk=88_C22H14N4SSeSi.chk
%NProcShared=12
%Mem=8000MB
#B3LYP/6-31++G(d,p) opt scf=direct freq test

Geom opt of No.88 candidate from the CEPDB database with SMILE code of c1cc2csc(-c3cc4[nH]c5c(c4cn3)c3nsnc3c3ccc4nsnc4c53)c2o1, HPC, 20131227, Shuo Dai, Gaussian09

0  1
C          -1.98843        -0.52504         0.00046
C          -1.57345         0.81244         0.00043
C          -0.16992         0.75533         0.00083
C           0.89558         1.58211         0.00287
S           2.31577         0.62056        -0.00189
C           1.44585        -0.89319        -0.00095
C           2.17195        -2.16074        -0.00097
C           3.57751        -2.17470         0.00120
C           4.20724        -3.41185         0.00016
N           5.56061        -3.73742        -0.00043
H           6.30611        -3.05468         0.00085
C           5.73862        -5.11172        -0.00651
C           4.42127        -5.58511        -0.00252
C           3.45256        -4.57601        -0.00155
C           2.05026        -4.49305        -0.00297
N           1.42807        -3.28609        -0.00315
C           4.13260        -6.98567        -0.00314
N           2.91039        -7.48937        -0.00553
S           3.18556        -9.13812        -0.00864
N           4.85123        -9.14881        -0.00477
C           5.26654        -7.85815        -0.00530
C           6.60663        -7.39186        -0.01077
C           7.58309        -8.40685        -0.01704
C           8.93391        -8.13703        -0.02530
C           9.32199        -6.78364        -0.00579
N          10.59678        -6.41902         0.03237
S          10.59424        -4.77195        -0.03653
N           8.94209        -4.45054        -0.03134
C           8.29557        -5.64381        -0.01611
C           6.88147        -5.96351        -0.01302
C           0.12294        -0.59475        -0.00024
O          -0.94946        -1.44168        -0.00001
H          -2.97406        -0.97593         0.00086
H          -2.22397         1.67601         0.00025
H           1.00199         2.65396         0.00624
H           4.17181        -1.27303         0.00285
H           1.39815        -5.36161        -0.00534
H           7.28224        -9.45640        -0.00343
H           9.68757        -8.90630        -0.03182



