%chk=79_C17H7N3OSSe2.chk
%NProcShared=12
%Mem=8000MB
#B3LYP/6-31++G(d,p) opt scf=direct freq test

Geom opt of No.79 candidate from the CEPDB database with SMILE code of [SiH2]1C=Cc2c1c1c3nsnc3c3cc([Se]c3c1c1nsnc21)-c1cccc2cocc12, HPC, 20131227, Shuo Dai, Gaussian09

0  1
Si          3.75981         0.46917        -1.41132
H           4.57522        -0.60774        -1.84926
H           2.83705         0.81094        -2.43509
C           2.84381        -0.03142         0.09420
C           3.50083        -0.39152         1.17371
C           2.77883        -0.78609         2.36038
C           2.37934        -2.05667         2.47387
C           1.64337        -2.49031         3.66582
C           1.21308        -3.80558         3.82668
N           1.46273        -4.69169         2.91059
S           0.96492        -6.20430         3.10120
N           0.11043        -5.38378         5.11222
C           0.52043        -4.16029         4.96485
C           0.25655        -3.22367         5.95506
C          -0.48523        -3.63139         7.17155
C          -0.83397        -5.10809         7.08120
Se          0.30487        -0.63274         7.19741
C           0.67756        -1.91830         5.81809
C           1.37491        -1.53611         4.67391
C           1.84707        -0.16169         4.47638
N           1.74296         0.97537         5.26484
S           2.41626         2.04500         4.52119
N           2.86845         1.48836         3.36242
C           2.53079         0.16395         3.32927
C          -1.57575        -5.51582         8.29769
C          -1.82212        -4.58638         9.28458
C          -2.51300        -4.95989        10.42172
C          -2.95051        -6.25907        10.56045
C          -2.70716        -7.21485         9.56429
C          -3.13208        -8.57225         9.64657
O          -2.95238        -9.11248         7.95098
C          -1.79331        -7.84846         7.44305
C          -2.01528        -6.84080         8.42550
H           1.81181        -0.03060         0.09447
H           4.53283        -0.39234         1.17344
H          -1.38438        -3.05675         7.25039
H           0.12384        -3.46091         8.03460
H          -0.82010        -6.04803         6.57011
H          -1.49192        -3.61479         9.17499
H          -2.70055        -4.26823        11.16432
H          -3.46577        -6.53297        11.41164
H          -3.45800        -9.10416        10.46869
H          -1.13625        -7.84892         6.64725



