%chk=58_C23H12N4S4.chk
%NProcShared=12
%Mem=8000MB
#B3LYP/6-31++G(d,p) opt scf=direct freq test

Geom opt of No.58 candidate from the CEPDB database with SMILE code of c1cc2csc(-c3ncc(-c4ccc(nc4)-c4cncs4)c4nsnc34)c2[nH]1, HPC, 20131227, Shuo Dai, Gaussian09

0  1
C          -2.07806         0.07563        -0.00181
C          -1.31690         1.25881         0.00013
C           0.04504         0.88538         0.00014
C           1.26326         1.44097         0.00094
S           2.42610         0.17577         0.00021
C           1.21397        -1.08098        -0.00196
C           1.62352        -2.46039        -0.00228
N           2.97038        -2.70796        -0.01342
C           3.45660        -3.97049         0.00300
C           2.71152        -5.14945         0.01791
C           3.29212        -6.47473         0.01052
C           4.61444        -6.69468        -0.38850
C           5.11049        -7.98189        -0.45169
C           4.23085        -9.02432        -0.22233
N           2.97540        -8.85092         0.22275
C           2.55723        -7.59555         0.38268
C           4.57924       -10.39590        -0.50420
C           5.63722       -10.90679        -1.22803
N           5.68653       -12.28018        -1.32128
C           4.65161       -12.78353        -0.68695
S           3.58268       -11.68217         0.04608
C           1.30601        -4.93104        -0.00355
N           0.34039        -5.86777        -0.04969
S          -1.11670        -5.12043         0.00980
N          -0.60341        -3.56211         0.03199
C           0.74234        -3.55943         0.00738
C          -0.00677        -0.49353        -0.00216
N          -1.25957        -1.04587        -0.00398
H          -1.50519        -2.03497        -0.00364
H          -3.15235        -0.05702        -0.00186
H          -1.71474         2.26136         0.00136
H           1.57159         2.47456         0.00172
H           4.54709        -3.99289         0.00360
H           5.27637        -5.88532        -0.68232
H           6.14897        -8.14762        -0.70759
H           1.57032        -7.54268         0.82987
H           6.40427       -10.31492        -1.71514
H           4.46206       -13.84163        -0.61623



