%chk=55_C27H13N3O2S.chk
%NProcShared=12
%Mem=8000MB
#B3LYP/6-31++G(d,p) opt scf=direct freq test

Geom opt of No.55 candidate from the CEPDB database with SMILE code of C1ccc2csc(c12)-c1ncc(s1)-c1ncc(-c2cccc3cocc23)c2nsnc12, HPC, 20131227, Shuo Dai, Gaussian09

0  1
C          -1.40846         1.19180         0.00402
C          -2.25706        -0.07997         0.00131
C          -1.49053        -1.20207        -0.00145
C          -0.13924        -0.83408        -0.00061
C           1.04784        -1.49919        -0.00086
S           2.30605        -0.37176         0.00720
C           1.19891         1.00777         0.00565
C          -0.06556         0.57195         0.00303
C           1.66713         2.34863         0.00584
N           1.00828         3.48881         0.01019
C           1.95348         4.52673         0.00322
C           3.26143         4.09416        -0.00390
S           3.31276         2.44662        -0.00485
C           4.53514         4.70913        -0.02140
N           4.50121         6.03856        -0.08967
C           5.66927         6.68892        -0.15733
C           6.97127         6.17593        -0.07858
C           8.15455         6.98391        -0.08606
C           9.47404         6.45978        -0.20631
C          10.66864         7.21720        -0.20426
C          10.68490         8.61327        -0.11068
C           9.40152         9.12934        -0.00902
C           9.06552        10.44713         0.10957
O           7.71670        10.57354         0.22201
C           7.19815         9.31350         0.22775
C           8.19404         8.38265         0.02089
C           7.02044         4.75788        -0.03618
N           8.10215         3.95378        -0.00795
S           7.61762         2.39343        -0.05158
N           6.01337         2.66469        -0.04024
C           5.77720         3.99508        -0.02876
H          -1.56984         1.79543         0.90279
H          -1.57061         1.80080        -0.89104
H          -3.32993        -0.06671         0.00337
H          -1.81973        -2.22479        -0.00203
H           1.28911        -2.54713        -0.00313
H           1.63716         5.56663         0.00145
H           5.46712         7.73133        -0.33233
H           9.64672         5.39170        -0.31006
H          11.59864         6.65582        -0.28106
H          11.59710         9.18195        -0.10581
H           9.61721        11.36914         0.15591
H           6.13250         9.31642         0.40824



