%chk=80_C22H10N4OS2SeSi.chk
%NProcShared=12
%Mem=8000MB
#B3LYP/6-31++G(d,p) opt scf=direct freq test

Geom opt of No.80 candidate from the CEPDB database with SMILE code of C1C=Cc2[Se]c3c4[SiH2]C(=Cc4c4nsnc4c3c12)c1cncc2nsnc12, HPC, 20131227, Shuo Dai, Gaussian09

0  1
C          -5.59405        -5.24963         2.55320
C          -5.02698        -4.53869         1.38302
C          -5.20133        -5.02121         0.17328
C          -4.63426        -4.31027        -0.99690
Se         -3.32149        -3.58003        -0.62768
C          -3.80901        -2.18527        -0.28924
C          -3.19665        -1.12184         0.38832
Si         -1.49116        -1.30763         1.03097
H          -0.65041        -0.33330         0.43078
H          -1.49384        -1.12749         2.43950
C          -0.86688        -2.98284         0.63077
C          -3.20876         1.10548         1.26262
C          -3.84839         0.01537         0.56429
C          -5.09799         0.16587         0.10025
N          -5.99121         1.22867         0.14811
S          -7.15285         0.83006        -0.49910
N          -7.00150        -0.40218        -0.92621
C          -5.72487        -0.84963        -0.56857
C          -5.07636        -2.04655        -0.77377
C          -5.50557        -3.19086        -1.41890
C          -1.27350        -4.20471        -0.02257
C          -2.22098        -4.99081         0.53553
N          -2.61893        -6.15223        -0.04737
C          -2.09474        -6.57097        -1.21970
C          -1.10528        -5.79029        -1.85328
N          -0.39669        -5.89815        -2.97621
S           0.40656        -4.84891        -3.07290
N           0.24489        -4.04737        -2.03992
C          -0.68888        -4.57840        -1.23420
H          -5.86843        -4.77939         3.47433
H          -5.69111        -6.16663         3.09596
H          -4.49517        -3.66467         1.51825
H          -5.73314        -5.89524         0.03805
H          -4.51060        -5.06461        -1.74562
H          -3.23841         2.06922         1.63053
H          -6.00069        -2.97220        -2.34191
H          -2.65319        -4.70168         1.42695
H          -2.41508        -7.45366        -1.64781



