%chk=17_C24H15N3S2Si2.chk
%NProcShared=12
%Mem=8000MB
#B3LYP/6-31++G(d,p) opt scf=direct freq test

Geom opt of No.17 candidate from the CEPDB database with SMILE code of C1cccc1-c1ncc(-c2sc(-c3scc4cc[SiH2]c34)c3cc[SiH2]c23)c2nsnc12, HPC, 20131227, Shuo Dai, Gaussian09

0  3
C           0.21835         1.17839        -0.10030
C           1.34306         0.21423        -0.18552
C           0.86226        -1.04063        -0.22683
C          -0.57485        -1.03300        -0.15912
C          -0.94967         0.25270         0.03869
C          -2.05485         0.58714         0.88354
N          -2.56165        -0.40437         1.67017
C          -3.15040        -0.10575         2.84600
C          -3.28321         1.17325         3.40170
C          -4.01162         1.45483         4.60854
S          -4.83716         0.15695         5.32488
C          -5.36966         1.07502         6.66026
C          -6.06483         0.35638         7.68688
S          -5.87289        -1.37135         7.88548
C          -6.90370        -1.42405         9.23829
C          -7.37565        -0.17754         9.55874
C          -8.24605         0.27987        10.68630
C          -8.39083         1.78508        10.62193
Si         -7.62999         2.40908         9.08768
H          -8.38070         3.01970         7.95646
H          -6.50079         3.29591         9.46207
C          -6.92622         0.79580         8.63731
C          -5.04511         2.41350         6.49864
C          -5.28255         3.68093         7.29340
C          -4.84289         4.89470         6.54661
Si         -3.89431         4.37367         5.13160
H          -4.34036         4.86184         3.80134
H          -2.45599         4.49267         5.47185
C          -4.28492         2.58545         5.31730
C          -2.68987         2.19468         2.63432
N          -2.45360         3.46568         2.97123
S          -1.83368         4.28948         1.71266
N          -1.71210         3.03234         0.67168
C          -2.14706         1.92745         1.31129
H           0.11441         1.81771        -0.98269
H           0.38231         1.79738         0.79143
H           2.36668         0.52063        -0.07319
H           1.44372        -1.93941        -0.11538
H          -1.18630        -1.88606         0.08615
H          -3.50739        -0.99967         3.36153
H          -7.08120        -2.36891         9.72712
H          -7.76661         0.01122        11.62913
H          -9.23002        -0.18285        10.59783
H          -8.14074         2.40319        11.47202
H          -4.70956         3.64075         8.22330
H          -6.34006         3.85698         7.42473
H          -4.70628         5.87775         6.95708



