%chk=8_C25H11N3S3Se.chk
%NProcShared=12
%Mem=8000MB
#B3LYP/6-31++G(d,p) opt scf=direct freq test

Geom opt of No.8 candidate from the CEPDB database with SMILE code of [SiH2]1cccc1-c1ccc(cn1)-c1sc(-c2cncc3nsnc23)c2[Se]ccc12, HPC, 20131227, Shuo Dai, Gaussian09

0  1
Si          0.00000         1.11900        -0.00200
H           0.00053         1.92662         1.16597
H          -0.00053         1.93351        -1.16517
C           1.10500         0.35600         0.00100
C           0.74300        -0.91600         0.00100
C          -0.74300        -0.91600        -0.00200
C          -1.10500         0.35600         0.00200
C          -1.90446         0.64291         1.21644
C          -2.48186        -0.41254         1.97591
C          -3.44158        -0.11102         2.95600
C          -3.60011         1.11647         3.35562
C          -2.80690         2.13841         2.81722
N          -2.06600         1.89957         1.63423
C          -4.59480         1.42655         4.35541
S          -4.86903         2.61248         4.76871
C          -5.80274         2.56224         5.70635
C          -6.37408         3.68578         6.41088
C          -5.92086         4.90706         6.05000
N          -6.27974         6.02999         6.72622
C          -7.11698         5.98070         7.78502
C          -7.62725         4.73481         8.20615
N          -8.44581         4.33197         9.17690
S          -8.57705         3.01570         9.10161
N          -7.86500         2.53752         8.10162
C          -7.24240         3.56233         7.49728
C          -6.12420         1.24013         5.88129
Se         -6.88945         0.35371         6.54364
C          -6.51416        -0.96797         6.02287
C          -5.59519        -0.77421         5.11506
C          -5.33357         0.53719         5.00068
H           2.07632         0.70464         0.00298
H           1.36489        -1.73957         0.00273
H          -1.36489        -1.73956        -0.00632
H          -2.19816        -1.39051         1.80822
H          -4.02118        -0.86370         3.35921
H          -2.76288         3.05974         3.28008
H          -5.28617         4.98885         5.24037
H          -7.38086         6.84627         8.28118
H          -6.90296        -1.87711         6.31836
H          -5.13788        -1.51938         4.56678



