%chk=42_C24H9N7OS3.chk
%NProcShared=12
%Mem=8000MB
#B3LYP/6-31++G(d,p) opt scf=direct freq test

Geom opt of No.42 candidate from the CEPDB database with SMILE code of C1ccc2c1csc2-c1cnc(-c2ncc(s2)-c2scc3ccCc23)c2nsnc12, HPC, 20131227, Shuo Dai, Gaussian09

0  1
C          -1.43628         1.37469         0.00392
C          -2.19594         0.05538         0.00274
C          -1.34554        -0.99637         0.00126
C          -0.00419        -0.51528        -0.00149
C          -0.03772         0.89650         0.00007
C           1.19298         1.47662        -0.00094
S           2.39730         0.29189        -0.00925
C           1.26948        -1.02257        -0.00393
C           1.74378        -2.38345        -0.00435
C           0.86636        -3.46122        -0.02130
N           1.21457        -4.75101        -0.02066
C           2.52772        -5.11005        -0.00288
C           2.83172        -6.49493         0.00181
N           4.01503        -7.05440        -0.01996
C           3.84802        -8.41143        -0.01256
C           2.53891        -8.83124         0.01434
S           1.49291        -7.51612         0.04162
C           1.97599       -10.12505         0.02289
S           2.98138       -11.51309         0.00073
C           1.62735       -12.56316         0.02674
C           0.47738       -11.85037         0.04968
C          -0.91134       -12.13478         0.07778
C          -1.61723       -10.98836         0.09370
C          -0.69707        -9.77062         0.07682
C           0.64407       -10.45620         0.04808
C           3.53240        -4.15425         0.01295
N           4.86373        -4.34524         0.03128
S           5.56390        -2.86298         0.03936
N           4.20931        -1.93394         0.02830
C           3.13024        -2.73590         0.01209
H          -1.64010         1.94486         0.91121
H          -1.64381         1.95041        -0.89899
H          -3.27104        -0.02152         0.00477
H          -1.69176        -2.01948         0.00297
H           1.48295         2.51275         0.00133
H          -0.21100        -3.35378        -0.03858
H           4.72919        -9.03811        -0.03009
H           1.79686       -13.62818         0.02329
H          -1.31287       -13.13557         0.08561
H          -2.69614       -10.90989         0.11678
H          -0.85018        -9.16585         0.97839
H          -0.88754        -9.16115        -0.81444



