%chk=61_C19H12N4S3Si.chk
%NProcShared=12
%Mem=8000MB
#B3LYP/6-31++G(d,p) opt scf=direct freq test

Geom opt of No.61 candidate from the CEPDB database with SMILE code of [SiH2]1C=Cc2c1c1oc3cc(sc3c1c1ccccc21)-c1cncc2nsnc12, HPC, 20131227, Shuo Dai, Gaussian09

0  1
Si          3.07628         1.44522         0.35864
H           4.38987         0.80980        -0.40288
H           2.55329         1.27282        -1.09881
C           2.72727        -0.53712         0.01510
C           3.64118        -0.94721         0.92030
C           2.99971        -0.64542         2.21225
C           2.59327         0.68817         2.44860
C           1.88241         0.88004         3.69843
O           1.46553         2.02428         4.46504
C           0.66648         1.52029         5.51415
C          -0.10341         1.95689         6.66495
C           0.86796         2.44039         7.55173
S           1.29603         0.39683         7.65871
C           1.20048         0.33124         5.81520
C           1.55604        -0.27914         4.53964
C           1.72043        -1.63055         3.99915
C           1.22190        -2.90609         4.45506
C           1.42186        -4.11365         3.71514
C           2.10585        -4.14417         2.53432
C           2.65326        -2.95297         2.12111
C           2.46242        -1.76656         2.85765
C           0.41470         3.45358         8.64809
C           0.45577         4.89751         8.56824
N          -0.03043         5.87594         9.46372
C          -0.70697         5.51632        10.58879
C          -0.98942         4.14882        10.73264
N          -1.70047         3.61324        11.73714
S          -1.78803         1.99143        11.42576
N          -0.92329         1.88740        10.01701
C          -0.45314         3.11223         9.72795
H           1.64145        -0.61718         0.15894
H           4.69825        -0.68134         0.95195
H          -0.85894         1.49285         7.35547
H           0.64395        -2.97494         5.36292
H           1.02631        -5.06962         4.05817
H           2.27224        -4.99208         1.88839
H           3.16889        -3.00798         1.17315
H           0.90831         5.42516         7.71865
H          -1.00794         6.26436        11.31961



