%chk=83_C23H11N3S4Si.chk
%NProcShared=12
%Mem=8000MB
#B3LYP/6-31++G(d,p) opt scf=direct freq test

Geom opt of No.83 candidate from the CEPDB database with SMILE code of C1ccc2c1c(sc2-c1cncs1)-c1cnc(-c2cccc3cscc23)c2nsnc12, HPC, 20131227, Shuo Dai, Gaussian09

0  1
C          -1.39440         1.16793         0.00599
C          -2.21110        -0.10052        -0.00457
C          -1.39557        -1.18504        -0.00653
C          -0.04519        -0.76905        -0.00229
C           0.00691         0.63087         0.01548
C           1.29633         1.09628         0.05201
S           2.41042        -0.18235         0.00564
C           1.19473        -1.35896        -0.00341
C           1.59168        -2.70517        -0.00747
C           2.88492        -3.20812         0.01340
N           2.97371        -4.57684         0.01638
C           1.75647        -5.06830        -0.00505
S           0.46388        -3.97367        -0.03566
C           1.85206         2.40936         0.07438
C           3.21490         2.72286         0.06437
N           3.73216         3.96697         0.06479
C           2.91231         5.05294        -0.07620
C           3.52876         6.34110         0.00125
C           4.93907         6.50110        -0.08287
C           5.59070         7.76070        -0.06927
C           4.90194         8.98837         0.00710
C           3.52138         8.83149         0.09977
C           2.64981         9.88944         0.18236
S           1.02069         9.35954         0.15824
C           1.54947         7.77584         0.53426
C           2.85602         7.57039         0.14546
C           1.53069         4.82899        -0.26097
N           0.56563         5.65371        -0.71162
S          -0.88441         5.01269        -0.28469
N          -0.33588         3.54033         0.14123
C           0.99433         3.50833        -0.01503
H          -1.62907         1.72449         0.91910
H          -1.61243         1.74370        -0.90060
H          -3.28489        -0.11112         0.00114
H          -1.75103        -2.19699        -0.00267
H           3.79673        -2.61591         0.03045
H           1.54027        -6.11804        -0.00456
H           3.99087         1.95565         0.06093
H           5.56722         5.60618        -0.15628
H           6.67767         7.76393        -0.13067
H           5.40513         9.94021         0.01479
H           2.84653        10.94425         0.22730
H           0.80614         7.10287         0.92449



