%chk=49_C21H11N5S3SeSi.chk
%NProcShared=12
%Mem=8000MB
#B3LYP/6-31++G(d,p) opt scf=direct freq test

Geom opt of No.49 candidate from the CEPDB database with SMILE code of [SiH2]1C=c2c3cc[Se]c3c3[Se]c4cc(cnc4c3c2=C1)-c1nccc2nsnc12, HPC, 20131227, Shuo Dai, Gaussian09

0  1
Si          1.00596         0.06457        -0.07612
H           0.53262         1.38176         0.16339
H           0.53262        -0.38659        -1.33660
C           2.83796         0.06457        -0.07612
C           3.49498         0.80071        -0.94396
C           4.88210         0.84429        -0.99533
C           5.67511         0.16281         0.05494
C           4.73561        -0.49611         1.05171
Se          7.44976         1.54251        -2.06519
C           5.52883         1.51189        -2.00859
C           4.78884         2.16990        -2.99991
Se          5.16634         2.89089        -4.08326
C           4.14149         3.34387        -4.76513
C           3.99612         4.10384        -5.90836
C           2.73305         4.38405        -6.33097
C           1.66896         3.94599        -5.67475
N           1.74402         3.23406        -4.60574
C           2.91072         2.89644        -4.09702
C           3.37638         2.12607        -2.93739
C           2.74320         1.43963        -1.90661
C           0.39530        -1.05272         1.24106
C           2.54853         5.17776        -7.52307
N           2.35747         4.59165        -8.72492
C           2.31307         5.31886        -9.87219
C           2.44568         6.66405        -9.86554
C           2.64502         7.33451        -8.65715
N           2.81495         8.61832        -8.30207
S           2.96118         8.67147        -6.99385
N           2.89489         7.45638        -6.46982
C           2.69874         6.57862        -7.45254
H           3.35396        -0.51356         0.60544
H           6.28682         0.87978         0.56156
H           6.29732        -0.58234        -0.39508
H           4.28889        -0.01010         1.89382
H           4.22047        -1.36389         1.40735
H           4.81939         4.44872        -6.42636
H           0.73403         4.18761        -6.03883
H          -0.03918        -1.64666         1.96459
H           2.17459         4.83166       -10.77134
H           2.39977         7.19346       -10.75021



