%chk=64_C25H13N3OS2Si.chk
%NProcShared=12
%Mem=8000MB
#B3LYP/6-31++G(d,p) opt scf=direct freq test

Geom opt of No.64 candidate from the CEPDB database with SMILE code of c1scc2c1c1cc([nH]c1c1cnc3ccc4ccccc4c3c21)-c1cncc2nsnc12, HPC, 20131227, Shuo Dai, Gaussian09

0  1
C           2.32472        -1.26026        -0.03780
S           2.03091        -2.92532         0.00284
C           0.25328        -2.74959        -0.12923
C          -0.32360        -1.49374        -0.36726
C           1.07640        -0.66553        -0.14913
C           1.10489         0.72266        -0.07951
C           2.16243         1.67032         0.00739
C           1.52181         2.89389         0.01218
N           0.14430         2.60861         0.01537
H          -0.52357         3.36539         0.00268
C          -0.16235         1.23040        -0.13499
C          -1.47348         0.38176        -0.33145
C          -2.50691         1.20976        -0.06900
N          -3.71629         0.73280         0.27799
C          -3.84844        -0.63017         0.32707
C          -4.41493        -1.52800         1.17777
C          -5.70521        -1.19457         1.11929
C          -6.19220        -2.16462         0.30076
C          -6.49236        -3.61400         0.47993
C          -7.61112        -4.23919        -0.06073
C          -8.39882        -3.31263        -0.64776
C          -7.54003        -2.12752        -1.03570
C          -5.77748        -1.66530        -0.81956
C          -3.84759        -1.43533        -0.78891
C          -2.00244        -1.01547        -0.57756
C           2.09949         4.24425         0.00606
C           3.47823         4.52289         0.00839
N           4.09490         5.75182         0.01216
C           3.35184         6.89515         0.00862
C           1.94752         6.77877        -0.00409
N           1.06039         7.78648        -0.01273
S          -0.44521         7.09063        -0.02621
N          -0.04222         5.48040        -0.02103
C           1.30459         5.41712        -0.00713
H           3.36539        -0.88370         0.02810
H          -0.13862        -3.73651        -0.02874
H           3.25199         1.56909         0.00832
H          -2.38633         2.28026         0.02517
H          -4.17919        -2.62132         0.88595
H          -5.91825        -0.14296         0.70486
H          -5.65012        -4.25319         0.71909
H          -7.83176        -5.30253        -0.04002
H          -9.50329        -3.51444        -0.56191
H          -8.34520        -1.32154        -0.52759
H           4.19543         3.70109         0.00918
H           3.87602         7.84044         0.01383



