%chk=6_C23H11N5S4.chk
%NProcShared=12
%Mem=8000MB
#B3LYP/6-31++G(d,p) opt scf=direct freq test

Geom opt of No.6 candidate from the CEPDB database with SMILE code of [SiH2]1C=c2c3cc(cnc3c3c4cscc4c4ccccc4c3c2=C1)-c1cncc2nsnc12, HPC, 20131227, Shuo Dai, Gaussian09

0  1
Si          2.63645        -0.47052         0.23941
H           2.85008        -0.57178        -1.28089
H           2.68786        -1.54702         1.21346
C           1.18805         0.53153         1.55414
C           1.43860         1.80579         1.56140
C           0.67341         3.11065         1.99340
C          -0.70862         3.12516         2.02546
C          -1.32042         2.73192         0.86200
C          -0.55938         3.21784        -0.18173
N           0.51250         4.12795        -0.01861
C           1.11608         4.16419         1.22307
C           2.59192         4.40681         1.27644
C           3.31375         5.49408         1.93015
C           2.81280         6.65254         2.49891
S           4.03123         7.76798         3.03152
C           5.28121         6.68059         2.61902
C           4.77199         5.50036         2.08748
C           5.58694         4.41386         1.67903
C           7.00074         4.48711         1.81142
C           7.77133         3.41799         1.41294
C           7.13387         2.27127         0.95063
C           5.72433         2.18282         0.83146
C           4.86602         3.26288         1.10944
C           3.39963         3.26572         0.85085
C           2.45667         2.03306         0.50751
C           2.04789         1.20692        -0.53047
C          -2.73187         2.37004         0.77265
C          -3.38258         1.65959        -0.24785
N          -4.74125         1.48958        -0.40620
C          -5.62793         2.04825         0.47550
C          -5.11374         2.75768         1.57491
N          -5.81489         3.38675         2.53471
S          -4.71329         4.07459         3.56376
N          -3.32318         3.58551         2.84504
C          -3.64272         2.89196         1.73659
H           0.17644         0.10145         1.69952
H          -1.11421         4.13921         2.27694
H          -0.43602         2.50268        -1.00080
H           1.80751         7.01325         2.62463
H           6.30285         7.01493         2.79471
H           7.51537         5.37477         2.17750
H           8.85603         3.48457         1.45948
H           7.75081         1.43329         0.63816
H           5.32278         1.24826         0.46029
H           1.10558         0.52763        -0.67052
H          -2.80902         1.17881        -1.04420
H          -6.68515         1.92427         0.29167



