%chk=78_C23H13N3S3SeSi.chk
%NProcShared=12
%Mem=8000MB
#B3LYP/6-31++G(d,p) opt scf=direct freq test

Geom opt of No.78 candidate from the CEPDB database with SMILE code of c1occ2c1ccc1[Se]c3cc([Se]c3c21)-c1cncc2nsnc12, HPC, 20131227, Shuo Dai, Gaussian09

0  1
C           2.76200        -0.39900         0.00200
O           2.92300         0.95900        -0.00100
C           1.72200         1.56100        -0.00300
C           0.71100         0.50200        -0.00200
C           1.41800        -0.71100         0.00100
C           0.71000        -1.91300         0.00200
C          -0.66800        -1.90200         0.00000
C          -1.38000        -0.69400        -0.00300
Se         -2.76500        -0.48800        -0.00500
C          -3.05900         0.94800         0.00700
C          -3.83795         1.32305         1.25719
C          -5.19028         0.62933         1.23872
Se         -1.46298         2.75444         1.59488
C          -1.68500         1.63700         0.00000
C          -0.68800         0.49900         0.00200
C          -5.94976         0.99499         2.45766
C          -6.00864         2.28970         2.84162
N          -6.63823         2.66699         3.98544
C          -7.24632         1.76663         4.78796
C          -7.22313         0.40045         4.43729
N          -7.70264        -0.71876         4.97777
S          -7.37412        -1.73966         4.19976
N          -6.68902        -1.32173         3.15496
C          -6.55676         0.01174         3.24139
H           3.53078        -1.08748         0.00462
H           1.54540         2.57778        -0.00489
H           1.21852        -2.81101         0.00424
H          -1.18355        -2.79600         0.00072
H          -3.65950         1.24170        -0.82849
H          -3.98120         2.38308         1.28358
H          -3.29106         1.01536         2.12388
H          -5.87087        -0.02595         0.73641
H          -1.55997         2.28482        -0.84238
H          -5.56420         3.01002         2.25117
H          -7.72337         2.07526         5.64947



