%chk=50_C20H10N4SSe2Si.chk
%NProcShared=12
%Mem=8000MB
#B3LYP/6-31++G(d,p) opt scf=direct freq test

Geom opt of No.50 candidate from the CEPDB database with SMILE code of c1cc2c(scc2o1)-c1cc2c3nsnc3c3c4[Se]ccc4[Se]c3c2c2nsnc12, HPC, 20131227, Shuo Dai, Gaussian09

0  1
C          -2.08100         0.04600        -0.00100
C          -1.33100        -1.08600        -0.00100
C          -0.00400        -0.69400         0.00500
C           1.33600        -1.10600        -0.00100
S           2.10000        -0.04700        -0.00100
C           1.29500         1.10000        -0.00000
C          -0.01300         0.69600        -0.00000
O          -1.29900         1.08900        -0.00000
C           1.79539        -2.47497        -0.00630
C           3.11141        -2.70857        -0.02473
C           3.61148        -4.08709        -0.03231
C           4.97448        -4.37514        -0.04641
N           5.84608        -3.41231        -0.04881
S           7.41385        -3.74991        -0.06507
N           6.66205        -5.95949        -0.08038
C           5.39195        -5.68915        -0.05781
C           4.46923        -6.72637        -0.04543
C           4.94363        -8.13037        -0.05266
Se          5.17036        -9.35657         0.86261
C           5.06205       -10.54869        -0.05844
C           5.16743       -10.18912        -1.30850
C           5.36363        -8.69519        -1.43008
Se          1.85068        -7.90984        -0.00950
C           3.11626        -6.46344        -0.02648
C           2.67140        -5.14300        -0.01969
C           1.24428        -4.80558         0.00133
N           0.10558        -5.59838         0.01783
S          -1.03091        -4.67180         0.03406
N          -0.50747        -3.41362         0.02634
C           0.85763        -3.48655         0.00730
H          -3.11256         0.07603        -0.00169
H          -1.68410        -2.05571        -0.00476
H           1.62906         2.07644         0.00063
H           3.77557        -1.91873        -0.03362
H           4.66370        -7.52902         0.78693
H           4.92289       -11.52065         0.25928
H           5.12271       -10.83918        -2.10878
H           6.09376        -8.46083        -2.17633



