%chk=19_C23H15N3S2Si.chk
%NProcShared=12
%Mem=8000MB
#B3LYP/6-31++G(d,p) opt scf=direct freq test

Geom opt of No.19 candidate from the CEPDB database with SMILE code of [SiH2]1ccc2c1c(sc2-c1sc(-c2nccc3nsnc23)c2ccoc12)-c1nccs1, HPC, 20131227, Shuo Dai, Gaussian09

0  1
Si         -1.55842         1.61419         0.00462
H          -1.68375         2.34160        -1.27888
H          -1.67970         2.32278         1.29868
C          -2.39260        -0.05652         0.00033
C          -1.47626        -1.04106        -0.00120
C          -0.10407        -0.60899        -0.00017
C           0.08191         0.80328         0.00187
C           1.37041         1.23442         0.00228
S           2.38895        -0.10962         0.00797
C           1.11119        -1.24335        -0.00035
C           1.50708        -2.60477        -0.00369
S           3.15208        -3.10300        -0.00838
C           2.76904        -4.77044        -0.00816
C           3.89323        -5.67394        -0.01311
N           5.18634        -5.19142        -0.02201
C           6.25800        -6.03735        -0.02773
C           6.20394        -7.42558        -0.02466
C           4.89557        -7.94625        -0.01727
N           4.56831        -9.24760        -0.01523
S           2.91306        -9.33171        -0.00758
N           2.54869        -7.73200        -0.00511
C           3.70642        -7.05747        -0.01138
C           1.41243        -4.89695        -0.00391
C           0.32185        -5.81367        -0.00016
C          -0.84532        -5.04986        -0.00064
O          -0.60666        -3.71324        -0.00180
C           0.74744        -3.68937        -0.00335
C           1.94829         2.53621        -0.00005
N           1.23430         3.63859         0.00872
C           2.09131         4.71848        -0.00259
C           3.43512         4.42555        -0.01821
S           3.66568         2.75319        -0.01912
H          -3.46238        -0.18813         0.00254
H          -1.81489        -2.06268        -0.00097
H           7.22652        -5.53366        -0.03602
H           7.07877        -8.05564        -0.02869
H           0.31357        -6.88874         0.00221
H          -1.89783        -5.29633        -0.00003
H           1.67511         5.71398         0.00049
H           4.29366         5.07185        -0.02975



