%chk=90_C23H11N5S3Si.chk
%NProcShared=12
%Mem=8000MB
#B3LYP/6-31++G(d,p) opt scf=direct freq test

Geom opt of No.90 candidate from the CEPDB database with SMILE code of C1ccc2c1c(sc2-c1cnc(s1)-c1nccc2nsnc12)-c1scc2[SiH2]ccc12, HPC, 20131227, Shuo Dai, Gaussian09

0  1
C          -1.38349         1.22920         0.00303
C          -2.18031        -0.05865         0.00235
C          -1.35306        -1.11370         0.00438
C           0.01232        -0.66615         0.00620
C           0.02604         0.74035         0.00296
C           1.31254         1.21856         0.00167
S           2.45338        -0.04237         0.00543
C           1.26721        -1.19172         0.00717
C           1.73878        -2.50607        -0.00265
C           2.97570        -3.09477         0.02056
N           2.93206        -4.48116         0.02151
C           1.66228        -4.84967        -0.01372
S           0.55193        -3.61421        -0.09962
C           1.05402        -6.14785        -0.00861
N           1.88535        -7.21397        -0.00018
C           1.36749        -8.46098        -0.00859
C           0.01882        -8.81109        -0.02614
C          -0.87841        -7.73220        -0.03667
N          -2.21922        -7.81977        -0.05840
S          -2.81212        -6.27774        -0.06612
N          -1.39410        -5.46650        -0.03332
C          -0.37193        -6.35383        -0.02518
C           1.86903         2.52456        -0.00049
S           3.62636         2.72241        -0.00589
C           3.52941         4.40039        -0.00519
C           2.22291         4.75733        -0.00050
Si          1.36008         6.36124         0.00669
H           1.74627         6.95787        -1.28741
H           1.74719         6.94060         1.30820
C          -0.28835         5.48453         0.00920
C          -0.11350         4.15976         0.00839
C           1.25524         3.72979         0.00243
H          -1.61275         1.78167         0.91712
H          -1.61415         1.78636        -0.90788
H          -3.26211        -0.09661         0.00232
H          -1.70654        -2.13743         0.00463
H           3.93308        -2.57687         0.04220
H           2.13784        -9.22557        -0.00159
H          -0.32350        -9.82802        -0.03180
H           4.43546         4.98137        -0.00710
H          -1.23511         6.00190         0.01476
H          -0.97180         3.51495         0.01365



