%chk=57_C19H9N5S3.chk
%NProcShared=12
%Mem=8000MB
#B3LYP/6-31++G(d,p) opt scf=direct freq test

Geom opt of No.57 candidate from the CEPDB database with SMILE code of C1ccc2csc(c12)-c1ccc(cn1)-c1ncc(-c2scc3ccsc23)c2nsnc12, HPC, 20131227, Shuo Dai, Gaussian09

0  1
C          -1.31997         1.20584         0.00270
C          -2.15000        -0.07524        -0.00959
C          -1.36754        -1.16902        -0.00964
C          -0.00359        -0.78081         0.00098
C           1.19414        -1.40871         0.00276
S           2.45730        -0.24775         0.02926
C           1.34562         1.08080         0.06952
C           0.05394         0.62540         0.02159
C           1.82894         2.43942         0.11958
C           0.98281         3.49943         0.41263
C           1.44009         4.77671         0.21032
C           2.75884         4.95894        -0.17666
C           3.57570         3.83332        -0.27146
N           3.12765         2.58394        -0.18859
C           3.22289         6.27219        -0.50084
N           2.51518         7.35842        -0.07483
C           2.91250         8.61638        -0.41175
C           4.05411         8.97647        -1.14533
C           4.40602        10.34865        -1.48800
S           3.55436        11.70265        -0.81478
C           4.51541        12.85736        -1.64712
C           5.43929        12.19509        -2.37974
C           6.51677        12.58119        -3.23616
C           7.19720        11.49634        -3.78833
S           6.45867         9.97189        -3.56266
C           5.35017        10.80068        -2.38126
C           4.82649         7.84379        -1.53008
N           6.05742         7.79056        -2.05429
S           6.38333         6.27946        -2.58712
N           5.09628         5.53512        -1.91581
C           4.35868         6.47539        -1.29417
H          -1.53562         1.78850         0.90317
H          -1.50438         1.81083        -0.89117
H          -3.23196        -0.07435        -0.00462
H          -1.69762        -2.19773        -0.00626
H           1.43764        -2.46154        -0.00916
H          -0.02600         3.36284         0.76490
H           0.77035         5.62455         0.32934
H           4.64732         3.88003        -0.44112
H           2.22310         9.36712        -0.02292
H           4.31850        13.91187        -1.52473
H           6.83358        13.58962        -3.45014
H           8.07668        11.47905        -4.41325



