%chk=22_C22H12N4S2Si.chk
%NProcShared=12
%Mem=8000MB
#B3LYP/6-31++G(d,p) opt scf=direct freq test

Geom opt of No.22 candidate from the CEPDB database with SMILE code of [SiH2]1ccc2csc(c12)-c1sc(-c2ncc(s2)-c2nccc3nsnc23)c2sccc12, HPC, 20131227, Shuo Dai, Gaussian09

0  1
Si         -1.63982         1.40272         0.00369
H          -1.72435         2.23043        -1.22824
H          -1.71898         2.21470         1.24605
C          -2.35617        -0.30188         0.00059
C          -1.39397        -1.24180        -0.00095
C          -0.06175        -0.71506        -0.00129
C           1.15677        -1.32417        -0.00169
S           2.40292        -0.14325        -0.00019
C           1.28495         1.23529         0.00100
C           0.03885         0.70087         0.00010
C           1.71929         2.61806         0.00258
S           3.40687         2.82622         0.00169
C           3.34979         4.51665         0.00146
C           4.50024         5.30926        -0.00009
N           4.57914         6.62520        -0.00317
C           5.91699         6.98246        -0.01265
C           6.80543         5.92481        -0.01622
S           5.94906         4.49128         0.00164
C           8.22962         5.80715        -0.02891
N           8.93622         6.96317        -0.03552
C          10.29336         6.91655        -0.04560
C          11.10004         5.77889        -0.04919
C          10.39945         4.56151        -0.04427
N          10.94851         3.33522        -0.04785
S           9.70266         2.24554        -0.04052
N           8.44182         3.29092        -0.03238
C           8.92392         4.55209        -0.03448
C           2.07358         4.95656         0.00093
S           1.50499         6.66687        -0.00235
C          -0.05794         5.95529         0.00319
C          -0.11749         4.55554         0.00777
C           1.16316         3.88542         0.00393
H          -3.42513        -0.42843         0.00244
H          -1.59454        -2.30652        -0.00083
H           1.41293        -2.37627        -0.00224
H           6.17213         8.03505        -0.01791
H          10.74685         7.90461        -0.05144
H          12.17432         5.81581        -0.05623
H          -0.87858         6.65555         0.00333
H          -1.08869         4.10228         0.01379



