%chk=46_C22H10N6OS3.chk
%NProcShared=12
%Mem=8000MB
#B3LYP/6-31++G(d,p) opt scf=direct freq test

Geom opt of No.46 candidate from the CEPDB database with SMILE code of [SiH2]1ccc2c1c(sc2-c1cnc(-c2ccc[Se]2)c2nsnc12)-c1ccco1, HPC, 20131227, Shuo Dai, Gaussian09

0  1
Si         -1.24900         1.15800        -0.00400
H          -1.51127         1.97517        -1.13531
H          -1.50254         1.94626         1.14959
C          -2.09400        -0.04400         0.00200
C          -1.29200        -1.07500         0.00000
C          -0.01500        -0.66200        -0.00000
C           0.02100         0.71400         0.00200
C           1.34900         1.05800         0.00100
S           2.04100        -0.07100        -0.00000
C           1.24200        -1.07800        -0.00100
C           1.65524        -2.46161        -0.00293
C           0.72928        -3.44627        -0.01739
N           1.08272        -4.75853        -0.00803
C           2.37781        -5.14203         0.00399
C           2.73182        -6.58112         0.00625
C           2.94500        -7.06064        -1.20769
C           2.91593        -8.54011        -1.07152
C           2.69397        -8.78141         0.20971
Se          2.57776        -7.60981         0.85552
C           3.39018        -4.15972         0.01438
N           4.72213        -4.18026         0.02762
S           5.16521        -2.93161         0.03280
N           4.15661        -2.08412         0.02164
C           3.01283        -2.78752         0.01073
C           1.88961         2.39699         0.00103
C           1.17774         3.55004        -0.01660
C           2.09046         4.55164         0.00149
C           3.27324         4.00048         0.02186
O           3.15395         2.72003         0.01740
H          -3.12569        -0.06895         0.00687
H          -1.59544        -2.06138        -0.00138
H          -0.27153        -3.19516        -0.03602
H           3.09978        -6.51861        -2.07214
H           3.04290        -9.23638        -1.82259
H           2.62197        -9.71582         0.64183
H           0.15044         3.64581        -0.03918
H           1.88762         5.56351        -0.00049
H           4.16819         4.51408         0.03895



