%chk=12_C18H11N5S3Si.chk
%NProcShared=12
%Mem=8000MB
#B3LYP/6-31++G(d,p) opt scf=direct freq test

Geom opt of No.12 candidate from the CEPDB database with SMILE code of c1cc2c3c[nH]cc3c3c4oc(cc4ncc3c2s1)-c1cncc2nsnc12, HPC, 20131227, Shuo Dai, Gaussian09

0  1
C           2.42968        -2.75818        -0.00002
C           2.73119        -1.41464         0.00046
C           1.54566        -0.67261        -0.00058
C           1.47621         0.76511        -0.00042
C           2.42579         1.75051         0.00005
N           1.72305         2.93982         0.00147
H           2.11156         3.87580         0.00180
C           0.37578         2.67061         0.00937
C           0.20210         1.30893         0.00155
C          -1.00423         0.61273         0.00130
C          -2.23625         1.18507        -0.00102
O          -2.43324         2.49566        -0.00494
C          -3.74991         2.75624        -0.01104
C          -4.42977         1.53431        -0.00609
C          -3.42772         0.49576        -0.00261
N          -3.45542        -0.86933        -0.00159
C          -2.20636        -1.45427        -0.00109
C          -0.95713        -0.78707        -0.00010
C           0.34721        -1.39568        -0.00055
S           0.74687        -3.07810        -0.00139
C          -3.90219         4.19996        -0.01368
C          -2.80001         5.09495        -0.07235
N          -2.76178         6.46799        -0.06109
C          -3.92159         7.15821         0.00878
C          -5.12290         6.42065         0.06836
N          -6.35845         6.93453         0.13655
S          -7.40060         5.64477         0.18833
N          -6.34231         4.37051         0.12777
C          -5.11003         4.89765         0.05886
H           3.11294        -3.59231         0.00036
H           3.73576        -1.01479         0.00167
H           3.50293         1.76045         0.00013
H          -0.31284         3.49169         0.02324
H          -5.49642         1.35925        -0.00693
H          -2.22854        -2.54484        -0.00225
H          -1.79000         4.70784        -0.14194
H          -3.85913         8.23873         0.01155



