%chk=95_C20H12N6S2Si.chk
%NProcShared=12
%Mem=8000MB
#B3LYP/6-31++G(d,p) opt scf=direct freq test

Geom opt of No.95 candidate from the CEPDB database with SMILE code of [SiH2]1ccc2c1c(sc2-c1ccco1)-c1sc(c2[SiH2]ccc12)-c1nccc2nsnc12, HPC, 20131227, Shuo Dai, Gaussian09

0  1
Si         -1.72261         1.24477         0.00119
H          -1.78729         2.07307        -1.23586
H          -1.78123         2.05732         1.24864
C          -2.42472        -0.44014        -0.00008
C          -1.44997        -1.37314        -0.00153
C          -0.11926        -0.83936        -0.00312
C          -0.04482         0.57341        -0.00207
C           1.20816         1.09666        -0.00079
S           2.31782        -0.20810        -0.00377
C           1.12992        -1.39886        -0.00317
C           1.61129        -2.72494        -0.00142
C           2.93938        -3.14055         0.01569
C           2.92157        -4.54020         0.01673
C           1.59586        -4.89390        -0.00467
O           0.79553        -3.80602        -0.01625
C           1.69415         2.41766         0.00151
S           3.38734         2.54115         0.00127
C           3.44263         4.20174        -0.00407
C           2.16544         4.65925         0.00033
Si          1.40716         6.32505         0.00579
H           1.75384         6.94081        -1.29399
H           1.75468         6.92337         1.31341
C          -0.28058         5.55719         0.00917
C          -0.17822         4.21149         0.01056
C           1.14016         3.68102         0.00468
C           4.73104         4.81455        -0.00949
N           4.74195         6.17093        -0.01147
C           5.91940         6.83441        -0.01754
C           7.19225         6.27101        -0.02088
C           7.22060         4.86419        -0.02028
N           8.32235         4.09547        -0.02506
S           7.81271         2.51911        -0.02359
N           6.19220         2.76321        -0.01578
C           5.96196         4.09298        -0.01466
H          -3.49238        -0.55070         0.00290
H          -1.63968        -2.43542        -0.00033
H           3.81682        -2.50028         0.02885
H           3.78049        -5.18997         0.03176
H           1.06766        -5.82968        -0.01274
H          -1.20706         6.09938         0.01533
H          -1.08847         3.66659         0.01948
H           5.78986         7.91347        -0.02047
H           8.09092         6.85953        -0.02483



