%chk=74_C22H11N5SSe.chk
%NProcShared=12
%Mem=8000MB
#B3LYP/6-31++G(d,p) opt scf=direct freq test

Geom opt of No.74 candidate from the CEPDB database with SMILE code of [SiH2]1ccc2c1csc2-c1cnc(-c2ccc(s2)-c2cccc3cocc23)c2nsnc12, HPC, 20131227, Shuo Dai, Gaussian09

0  1
Si         -1.63789         1.63236         0.00488
H          -1.72380         2.37698        -1.26998
H          -1.71845         2.35872         1.29030
C          -2.33712        -0.10126         0.00166
C          -1.36406        -1.01670         0.00154
C          -0.01905        -0.47491        -0.00202
C           0.04709         0.94069        -0.00080
C           1.28073         1.50377        -0.00210
S           2.42846         0.28282        -0.01241
C           1.25014        -0.99828        -0.00581
C           1.72431        -2.36144        -0.00506
C           0.85563        -3.44669        -0.01935
N           1.21524        -4.73173        -0.00731
C           2.52494        -5.06268         0.01817
C           2.85079        -6.43308         0.03144
C           4.07115        -7.04559         0.04168
C           3.92800        -8.43004        -0.02880
C           2.60870        -8.81494        -0.01415
S           1.56167        -7.49774         0.03681
C           1.98735       -10.09742        -0.03733
C           0.58399       -10.31541        -0.17094
C          -0.01949       -11.59591        -0.17943
C           0.71805       -12.79028        -0.06679
C           2.08420       -12.55106         0.05888
C           3.08658       -13.46507         0.20762
O           4.28906       -12.83215         0.32846
C           4.03923       -11.49497         0.29090
C           2.69793       -11.27929         0.08259
C           3.52305        -4.09651         0.01969
N           4.85583        -4.27865         0.02844
S           5.55449        -2.80207         0.03547
N           4.19416        -1.89367         0.02555
C           3.11358        -2.69721         0.01196
H          -3.40668        -0.27877         0.00421
H          -1.62667        -2.07197         0.00533
H           1.59867         2.52987         0.00062
H          -0.22029        -3.36015        -0.04186
H           5.03296        -6.55485         0.06130
H           4.79765        -9.05481        -0.08534
H          -0.10136        -9.46894        -0.26826
H          -1.10435       -11.62667        -0.27665
H           0.25119       -13.75916        -0.06705
H           3.13360       -14.53732         0.26828
H           4.91772       -10.88894         0.44621



