%chk=14_C24H14N4SSi.chk
%NProcShared=12
%Mem=8000MB
#B3LYP/6-31++G(d,p) opt scf=direct freq test

Geom opt of No.14 candidate from the CEPDB database with SMILE code of C1ccc2c1c(sc2-c1cccnc1)-c1[SiH2]c(cc1)-c1cncc2nsnc12, HPC, 20131227, Shuo Dai, Gaussian09

0  1
C          -1.43810         1.25606         0.03568
C          -2.25225        -0.03600        -0.02439
C          -1.44142        -1.13444        -0.04264
C          -0.10070        -0.71553         0.06103
C          -0.06549         0.70167         0.16971
C           1.18953         1.15760         0.36953
S           2.30874        -0.17425         0.46002
C           1.13397        -1.32538         0.08823
C           1.59830        -2.68285        -0.01615
C           2.88370        -3.00440        -0.49385
C           3.28802        -4.32347        -0.53065
C           2.35719        -5.28203        -0.17682
N           1.13052        -5.01419         0.32593
C           0.80146        -3.71635         0.43625
C           1.92411         2.42584         0.30149
Si          2.35361         2.60111        -1.52066
H           3.70351         2.01547        -1.65372
H           1.41294         2.12339        -2.57349
C           2.41256         4.42112        -1.38720
C           1.92990         4.87103        -0.20609
C           1.74800         3.81859         0.87671
C           3.40206         5.09752        -2.20906
C           4.51986         4.44950        -2.79053
N           5.61340         4.99855        -3.37819
C           5.71404         6.34333        -3.45792
C           4.66224         7.13688        -2.95752
N           4.60155         8.47616        -2.96380
S           3.16452         8.88937        -2.24516
N           2.55777         7.39349        -1.89455
C           3.46505         6.49663        -2.32216
H          -1.67746         1.85618         0.91536
H          -1.56878         1.84124        -0.88071
H          -3.32495        -0.06714        -0.02586
H          -1.77475        -2.15734        -0.06504
H           3.58521        -2.23902        -0.82495
H           4.29227        -4.58603        -0.84090
H           2.57802        -6.33447        -0.29450
H          -0.13651        -3.50754         0.94126
H           2.77248         2.15175         0.93610
H           2.01185         5.90376         0.12325
H           0.95212         3.97882         1.59920
H           2.68465         3.98884         1.45493
H           4.62719         3.36616        -2.77481
H           6.61217         6.72869        -3.91139



