%chk=85_C23H12N4S3Se.chk
%NProcShared=12
%Mem=8000MB
#B3LYP/6-31++G(d,p) opt scf=direct freq test

Geom opt of No.85 candidate from the CEPDB database with SMILE code of C1cccc1-c1cnc(s1)-c1ncc(-c2scc3ccCc23)c2nsnc12, HPC, 20131227, Shuo Dai, Gaussian09

0  1
C           0.15585         1.14857        -0.08690
C           1.31732         0.21976        -0.17672
C           0.88008        -1.04878        -0.22268
C          -0.56014        -1.07829        -0.12101
C          -0.97914         0.15238         0.12143
C          -2.06609         0.35976         1.00028
C          -2.65989        -0.40080         1.98729
N          -3.18644         0.33929         3.03721
C          -3.05979         1.62110         2.74786
S          -2.69043         1.91329         1.09926
C          -3.24619         2.75798         3.61842
N          -3.83925         2.57027         4.83091
C          -4.05597         3.63281         5.65207
C          -3.71957         4.97117         5.40797
C          -3.91505         6.06490         6.33616
S          -4.38389         5.72078         7.97203
C          -4.29808         7.36351         8.44335
C          -3.95915         8.13026         7.37517
C          -3.73259         9.50716         7.14209
C          -3.40845         9.70273         5.84703
C          -3.36547         8.38807         5.09758
C          -3.75085         7.42119         6.17802
C          -3.08911         5.18255         4.15925
N          -2.64477         6.33540         3.64023
S          -1.99399         6.08065         2.17025
N          -2.20354         4.46632         2.12164
C          -2.83368         4.06383         3.24549
H           0.02606         1.75147        -0.99345
H           0.27577         1.82190         0.76970
H           2.34073         0.54676        -0.07502
H           1.48887        -1.93019        -0.12221
H          -1.12906        -1.98406         0.07429
H          -2.59678        -1.47594         2.09233
H          -4.54395         3.33745         6.58122
H          -4.50072         7.63949         9.46400
H          -3.79049        10.27114         7.89757
H          -3.15132        10.63715         5.37442
H          -2.33275         8.25806         4.75990
H          -4.07049         8.37949         4.25852



