%chk=48_C19H11N5S2SeSi.chk
%NProcShared=12
%Mem=8000MB
#B3LYP/6-31++G(d,p) opt scf=direct freq test

Geom opt of No.48 candidate from the CEPDB database with SMILE code of [SiH2]1ccc2c1csc2-c1sc(-c2ccc(-c3ncncn3)c3nsnc23)c2[Se]ccc12, HPC, 20131227, Shuo Dai, Gaussian09

0  1
Si         -1.24900         1.15800        -0.00400
H          -1.51127         1.97517        -1.13531
H          -1.50254         1.94626         1.14959
C          -2.09400        -0.04400         0.00200
C          -1.29200        -1.07500         0.00000
C          -0.01500        -0.66200        -0.00000
C           0.02100         0.71400         0.00200
C           1.34900         1.05800         0.00100
S           2.04100        -0.07100        -0.00000
C           1.24200        -1.07800        -0.00100
C           1.65524        -2.46161        -0.00293
S           0.85583        -3.46825         0.00510
C           1.54730        -4.59756        -0.00088
C           1.00612        -5.93631         0.00362
C           1.83166        -7.00540         0.00247
C           1.35006        -8.27626         0.00015
C           0.02288        -8.53245         0.01111
C          -0.45201        -9.89610         0.02016
N           0.44245       -10.94742        -0.00223
C           0.01454       -12.20010         0.00627
N          -1.27493       -12.49169         0.04235
C          -2.22579       -11.48978         0.06621
N          -1.81266       -10.16553         0.05205
C          -0.88705        -7.47344         0.01364
N          -2.22616        -7.37413         0.01849
S          -2.54781        -6.09655         0.01933
N          -1.45762        -5.34362         0.01320
C          -0.38973        -6.14003         0.00986
C           2.87541        -4.25415        -0.01216
Se          4.14510        -4.69871        -0.03024
C           4.99065        -3.49709        -0.03162
C           4.18913        -2.46573        -0.02566
C           2.91200        -2.87816        -0.01388
H          -3.12569        -0.06895         0.00687
H          -1.59544        -2.06138        -0.00138
H           1.73536         2.01495         0.00102
H           2.85243        -6.85357         0.00336
H           2.01454        -9.06581        -0.01023
H           0.70389       -12.96778        -0.01581
H          -3.23059       -11.72347         0.09420
H           6.02235        -3.47259        -0.03640
H           4.49299        -1.47948        -0.02944



