%chk=26_C21H10N6S2.chk
%NProcShared=12
%Mem=8000MB
#B3LYP/6-31++G(d,p) opt scf=direct freq test

Geom opt of No.26 candidate from the CEPDB database with SMILE code of [SiH2]1C=c2ccc3c4nsnc4c(cc3c2=C1)-c1cc2ccccc2[nH]1, HPC, 20131227, Shuo Dai, Gaussian09

0  1
Si          2.10722         0.62045        -0.07019
H           2.86273         0.00535         1.09395
H           2.38761         2.00994        -0.48306
C           0.62621         0.04666        -1.52676
C           1.09387        -1.00196        -2.20779
C           0.49624        -1.91756        -3.17840
C           1.29757        -2.70840        -3.86795
C           2.76741        -2.76621        -3.62139
C           3.59120        -3.43144        -4.59095
N           3.15847        -4.12516        -5.66881
S           4.48756        -4.78787        -6.39555
N           5.69002        -4.14208        -5.46124
C           5.10107        -3.41623        -4.48712
C           5.75153        -2.69406        -3.42819
C           4.83082        -2.08818        -2.43743
C           3.36282        -2.15953        -2.46264
C           2.28160        -1.52265        -1.53391
C           2.04375        -1.32955        -0.19718
C           7.26021        -2.82027        -3.38077
C           8.02354        -3.74132        -2.66412
C           9.30631        -3.90859        -3.28368
C          10.38867        -4.80385        -3.09196
C          11.52000        -4.73892        -3.91798
C          11.59480        -3.77790        -4.91962
C          10.53700        -2.87162        -5.12799
C           9.38734        -2.96935        -4.30628
N           8.17421        -2.27655        -4.29923
H           7.98068        -1.51828        -4.93690
H          -0.41761         0.05984        -1.19762
H          -0.58619        -1.93833        -3.31442
H           0.92077        -3.33748        -4.68536
H           5.30723        -1.49833        -1.65179
H           1.05308        -1.06168         0.34507
H           7.65843        -4.36068        -1.85856
H          10.33662        -5.56928        -2.32297
H          12.33676        -5.44667        -3.77835
H          12.48297        -3.74170        -5.55212
H          10.61776        -2.13852        -5.92572



