%chk=53_C21H7N5O2S2Se.chk
%NProcShared=12
%Mem=8000MB
#B3LYP/6-31++G(d,p) opt scf=direct freq test

Geom opt of No.53 candidate from the CEPDB database with SMILE code of c1coc(c1)-c1ncc(-c2cnc(-c3cccc4cocc34)c3nsnc23)c2nsnc12, HPC, 20131227, Shuo Dai, Gaussian09

0  1
C          -1.35186         0.15979         0.00052
C          -0.43142         1.18013         0.00019
O           0.83395         0.68745        -0.00175
C           0.70637        -0.66841        -0.00266
C          -0.61546        -1.02768         0.00391
C           1.89411        -1.45574        -0.00966
N           3.09209        -0.84748        -0.02988
C           4.21202        -1.60487        -0.02655
C           4.31287        -3.01216         0.00976
C           5.54628        -3.75617         0.01613
C           5.67062        -5.15478         0.00450
N           6.81699        -5.87245         0.01107
C           8.02320        -5.25665        -0.09671
C           9.17756        -6.10213        -0.05429
C           9.08876        -7.52502        -0.14336
C          10.21617        -8.40164        -0.13987
C          11.55237        -7.95624        -0.06857
C          11.61741        -6.57446         0.04138
C          12.74450        -5.81309         0.15931
O          12.40486        -4.51032         0.34848
C          11.04942        -4.47390         0.41521
C          10.50758        -5.69690         0.08641
C           8.03426        -3.84769        -0.23612
N           9.02766        -3.03320        -0.60549
S           8.59860        -1.49423        -0.22958
N           7.02591        -1.78089         0.09994
C           6.78964        -3.10356        -0.03818
C           3.05584        -3.65161         0.00263
N           2.81159        -4.97725        -0.00242
S           1.18946        -5.20817        -0.00481
N           0.71299        -3.63907        -0.00257
C           1.81163        -2.86583        -0.00441
H          -2.42478         0.23006        -0.00110
H          -0.50907         2.25579        -0.00022
H          -0.99211        -2.03982         0.00657
H           5.07833        -0.95344        -0.06328
H           4.81811        -5.82509        -0.00852
H           8.09708        -7.98554        -0.20991
H          10.01864        -9.47187        -0.19752
H          12.40259        -8.61520        -0.05500
H          13.80363        -6.00354         0.18297
H          10.67718        -3.51328         0.72390



