%chk=20_C20H10N4OS4Si.chk
%NProcShared=12
%Mem=8000MB
#B3LYP/6-31++G(d,p) opt scf=direct freq test

Geom opt of No.20 candidate from the CEPDB database with SMILE code of C1ccc2csc(c12)-c1ccc(-c2ncc(-c3nccs3)c3nsnc23)c2cscc12, HPC, 20131227, Shuo Dai, Gaussian09

0  1
C          -1.44691         0.96200        -0.01093
C          -2.23238        -0.31826        -0.07262
C          -1.41210        -1.37686        -0.04678
C          -0.06327        -0.93958        -0.01563
C           1.14672        -1.53616         0.00236
S           2.36494        -0.34826         0.04372
C           1.22313         0.98602         0.02221
C          -0.04655         0.46964         0.00046
C           1.73500         2.34337         0.01696
C           3.11921         2.57910        -0.09894
C           3.68812         3.84815        -0.11804
C           2.96598         5.05563        -0.01851
C           3.59059         6.33741        -0.01278
N           2.79662         7.44452        -0.03499
C           3.29217         8.69275        -0.01892
C           4.64303         8.99780        -0.00990
C           5.10976        10.35577        -0.00324
N           4.31359        11.40614         0.00219
C           5.08120        12.55097        -0.00182
C           6.44028        12.35675        -0.00746
S           6.78863        10.71347        -0.00255
C           5.51990         7.88203        -0.00901
N           6.86503         7.87707        -0.02296
S           7.40068         6.33249        -0.00875
N           5.95259         5.58162         0.03601
C           4.98569         6.51681         0.00438
C           1.57888         4.85618         0.05766
C           0.63447         5.86029         0.18261
S          -0.95573         5.28734         0.06828
C          -0.35652         3.71026         0.27423
C           0.98444         3.54680         0.07650
H          -1.71274         1.41152         0.95104
H          -1.65840         1.60660        -0.87105
H          -3.31274        -0.30800        -0.06260
H          -1.71433        -2.41029        -0.02405
H           1.41490        -2.58146        -0.00348
H           3.84602         1.77017        -0.18051
H           4.76766         3.82130        -0.22131
H           2.51625         9.46040        -0.01563
H           4.59442        13.51384        -0.00163
H           7.25540        13.05474        -0.01333
H           0.72522         6.92508         0.30362
H          -1.12440         3.04772         0.54438



