%chk=59_C19H10N6S3.chk
%NProcShared=12
%Mem=8000MB
#B3LYP/6-31++G(d,p) opt scf=direct freq test

Geom opt of No.59 candidate from the CEPDB database with SMILE code of c1cc2c(sc(-c3cnc(s3)-c3ncncn3)c2[Se]1)-c1scc2nccnc12, HPC, 20131227, Shuo Dai, Gaussian09

0  1
C          -2.09400        -0.04400         0.00200
C          -1.29200        -1.07500         0.00000
C          -0.01500        -0.66200        -0.00000
C           1.24200        -1.07800        -0.00100
S           2.04100        -0.07100        -0.00000
C           1.34900         1.05800         0.00100
C           1.88961         2.39699         0.00103
C           1.17774         3.55004        -0.01660
N           2.09046         4.55164         0.00149
C           3.27324         4.00048         0.02186
S           3.15395         2.72003         0.01740
C           4.52548         4.71913         0.04578
N           4.53868         6.09959         0.04668
C           5.68271         6.76524         0.06864
N           6.84779         6.14006         0.09648
C           6.90958         4.75995         0.09720
N           5.72983         4.03064         0.06843
C           0.02100         0.71400         0.00200
Se         -1.24900         1.15800        -0.00400
C           1.65524        -2.46161        -0.00293
S           2.88210        -2.89421        -0.00637
C           2.90074        -4.29221        -0.00805
C           1.60151        -4.75728        -0.00582
N           1.03748        -6.02791        -0.00589
C          -0.33166        -6.17278         0.00267
C          -1.16268        -5.05224         0.00037
N          -0.62026        -3.78251         0.00150
C           0.76888        -3.62432        -0.00211
H          -3.12569        -0.06895         0.00687
H          -1.59544        -2.06138        -0.00138
H           0.15044         3.64581        -0.03918
H           5.66500         7.79708         0.06392
H           7.82170         4.27768         0.11885
H           3.74847        -4.88075        -0.01055
H          -0.74644        -7.11772         0.01085
H          -2.18760        -5.17291        -0.00219



