%chk=75_C23H13N3OS3Si.chk
%NProcShared=12
%Mem=8000MB
#B3LYP/6-31++G(d,p) opt scf=direct freq test

Geom opt of No.75 candidate from the CEPDB database with SMILE code of [SiH2]1C=c2ccc3c(c4ccc5cc(-c6ncncn6)c6nsnc6c5c4c4=C[SiH2]C=c34)c2=C1, HPC, 20131227, Shuo Dai, Gaussian09

0  1
Si          2.10020         0.03882         0.60057
H           2.56726        -0.44320         1.91926
H           2.82602         1.19158        -0.11908
C           0.61701        -1.44195         0.11087
C           1.09413        -2.20856        -0.87502
C           0.42045        -3.12169        -1.79782
C           1.14620        -3.83572        -2.58750
C           2.62847        -3.76158        -2.70733
C           3.28826        -2.65049        -2.19124
C           4.88439        -2.78823        -2.20397
C           5.70737        -1.91903        -1.50763
C           7.12253        -2.04060        -1.60962
C           7.84040        -3.01502        -2.36671
C           9.26457        -2.89433        -2.38880
C          10.14749        -3.71332        -3.11403
C          11.57607        -3.62066        -3.27309
N          12.00504        -3.67904        -4.54653
C          13.23896        -4.12719        -4.69907
N          14.09186        -4.34285        -3.70749
C          13.57413        -4.14756        -2.49107
N          12.31613        -3.83719        -2.19372
C           9.58105        -4.80293        -3.77066
N          10.31452        -5.74083        -4.41078
S           9.30200        -6.78471        -5.10945
N           7.93194        -6.12784        -4.52737
C           8.12305        -5.00911        -3.79246
C           7.13074        -4.02843        -3.06884
C           5.62698        -3.86593        -2.92747
C           4.76275        -4.85010        -3.56575
C           5.15947        -5.84078        -4.36769
Si          3.93787        -6.91151        -5.15747
H           3.56688        -6.48421        -6.50295
H           4.81908        -8.09864        -5.49161
C           2.78320        -5.93636        -4.05129
C           3.33096        -4.85591        -3.41412
C           2.31532        -1.62868        -1.44200
C           2.09274        -0.26860        -1.37138
H          -0.40803        -1.07551         0.00855
H          -0.67737        -3.16632        -1.83687
H           0.69095        -4.60997        -3.22659
H           5.30570        -1.12432        -0.88275
H           7.70639        -1.28749        -1.07462
H           9.72232        -2.08526        -1.81887
H          13.56078        -4.34298        -5.71281
H          14.24988        -4.24883        -1.65297
H           6.09861        -6.13964        -4.65850
H           1.75199        -6.18444        -4.17912
H           1.11092         0.31995        -1.06952



