%chk=32_C24H12N4OS2Si.chk
%NProcShared=12
%Mem=8000MB
#B3LYP/6-31++G(d,p) opt scf=direct freq test

Geom opt of No.32 candidate from the CEPDB database with SMILE code of c1c[nH]c(c1)-c1ncc(s1)-c1ncc(-c2ccc[Se]2)c2nsnc12, HPC, 20131227, Shuo Dai, Gaussian09

0  1
C          -1.14400         0.00000        -0.00200
C          -0.32800         1.08200         0.00100
N           0.90100         0.64300         0.00100
H           1.71843         1.21902         0.00302
C           0.90100        -0.64300        -0.00200
C          -0.32800        -1.08200         0.00300
C           2.08135        -1.47478        -0.00973
N           3.31051        -1.03632        -0.02062
C           4.12589        -2.11868        -0.03678
C           3.30951        -3.20032        -0.02358
S           2.08081        -2.76078        -0.00729
C           3.72289        -4.58388        -0.02691
N           5.03521        -4.90331        -0.04236
C           5.45265        -6.19663        -0.05344
C           4.57620        -7.22558        -0.03734
C           5.06957        -8.62304        -0.03796
C           5.32718        -9.11652         1.40698
C           5.72380       -10.60156         1.19293
C           4.80473       -11.07822         0.04869
Se          4.38892        -9.81996        -0.73362
C           3.20427        -6.96674        -0.02014
N           2.09645        -7.72546        -0.00687
S           1.04748        -6.92853         0.00732
N           1.42869        -5.65963         0.00186
C           2.76001        -5.61473        -0.01468
H          -2.17599        -0.00000        -0.00706
H          -0.62388         2.07067         0.00293
H          -0.62387        -2.07066         0.00955
H           5.15772        -2.11913        -0.05535
H           6.46453        -6.39827        -0.07469
H           5.89197        -8.41790        -0.69100
H           4.44426        -9.03517         2.00593
H           6.07156        -8.54789         1.92414
H           5.55079       -11.17231         2.08131
H           6.76167       -10.71899         0.96066
H           3.94078       -11.56696         0.44821
H           5.30835       -11.77799        -0.58501



