%chk=67_C20H12N4S3Si.chk
%NProcShared=12
%Mem=8000MB
#B3LYP/6-31++G(d,p) opt scf=direct freq test

Geom opt of No.67 candidate from the CEPDB database with SMILE code of [SiH2]1C=c2c(cc3c4nsnc4c4c5ncccc5oc4c3c2=C1)-c1scc2ccsc12, HPC, 20131227, Shuo Dai, Gaussian09

0  1
Si          3.54904        -0.55744         2.10666
H           4.46350        -1.70787         1.62062
H           4.78555         0.31684         2.04305
C           2.75182         1.01611         0.80208
C           3.36648         0.62172        -0.31194
C           4.79063         0.95265        -0.90461
C           5.58088        -0.30265        -0.65114
C           5.12642        -1.12906        -1.77081
C           5.50930        -2.60399        -1.42700
N           6.80828        -2.91953        -0.82197
S           7.83906        -3.73332        -1.78322
N           6.99107        -3.20309        -3.14760
C           5.53494        -3.21175        -2.81892
C           4.16665        -2.66240        -3.40093
C           3.87552        -3.00450        -4.77728
N           4.23328        -3.84094        -5.96574
C           2.82948        -4.01135        -6.18440
C           1.41544        -3.97437        -6.36838
C           0.91830        -3.23142        -5.12880
C           2.11185        -2.29633        -4.75050
O           1.92322        -1.78548        -3.45679
C           3.27185        -1.41859        -3.25999
C           3.49633        -0.90793        -1.91376
C           2.93067        -0.75442        -0.60972
C           2.46220        -1.58662         0.42804
C           5.50930         2.11630        -0.45755
S           4.74192         3.34423         0.41529
C           6.17008         4.24724         0.49729
C           7.15149         3.61971        -0.19127
C           8.50965         3.87539        -0.51721
C           9.09585         2.86867        -1.29797
S           8.06448         1.54172        -1.75485
C           6.80275         2.40733        -0.77451
H           1.67891         0.76861         0.78842
H           4.74949         1.11822        -2.01398
H           5.23594        -0.88200         0.17508
H           6.64579        -0.27811        -0.43673
H           5.63540        -0.78759        -2.69636
H           4.74727        -3.11882        -0.83676
H           6.92774        -2.86636         0.18498
H           7.29883        -3.73169        -3.95946
H           5.36401        -4.29618        -2.76310
H           3.50716        -3.30988        -2.77431
H           4.02946        -3.98988        -4.29244
H           4.42682        -4.86656        -5.85224
H           2.92134        -2.89499        -6.51693
H           2.63564        -4.44336        -5.14159
H           1.16534        -5.04582        -6.43008
H           1.31232        -3.39777        -7.29074
H           0.70460        -3.80472        -4.20689
H          -0.04202        -2.75918        -5.36822
H           2.05100        -1.44544        -5.46314
H           3.38451        -0.54432        -3.95426
H           2.96403         0.04057        -2.25112
H           1.81548        -1.42981         1.27548
H           6.08213         5.16292         1.04395
H           9.05952         4.75093        -0.21141
H          10.11052         2.82571        -1.66779



