%chk=29_C22H10N4S4Si.chk
%NProcShared=12
%Mem=8000MB
#B3LYP/6-31++G(d,p) opt scf=direct freq test

Geom opt of No.29 candidate from the CEPDB database with SMILE code of c1scc2c(cccc12)-c1cnc(-c2sc(-c3ccccn3)c3nccnc23)c2nsnc12, HPC, 20131227, Shuo Dai, Gaussian09

0  1
C          -1.50745         1.35855         0.17016
S          -2.70253         0.12230         0.14914
C          -1.51023        -1.10808         0.22865
C          -0.24291        -0.58611         0.06357
C           0.93715        -1.33170        -0.04772
C           2.10593        -0.54356        -0.15909
C           2.09539         0.86856        -0.13242
C           0.91255         1.62852        -0.01837
C          -0.24197         0.84300         0.06580
C           0.96921        -2.75287        -0.05679
C           0.10101        -3.53630        -0.81239
N           0.04562        -4.87826        -0.82386
C           0.92694        -5.59807        -0.09351
C           0.78307        -7.02713        -0.16122
S           1.77751        -7.90873         0.86401
C           1.29409        -9.41190         0.31076
C           2.01467       -10.52336         0.89903
C           3.24669       -10.36106         1.56559
C           3.94463       -11.47682         1.97611
C           3.35908       -12.71458         1.78556
C           2.09104       -12.77657         1.22529
N           1.42000       -11.71405         0.75930
C           0.26133        -9.27028        -0.60146
N          -0.39854       -10.29983        -1.19556
C          -1.37924        -9.85291        -2.02527
C          -1.67614        -8.51063        -2.27332
N          -1.02533        -7.45706        -1.72522
C          -0.03896        -7.86728        -0.86570
C           1.92265        -4.92345         0.68621
N           2.92715        -5.42110         1.44014
S           3.73706        -4.17634         2.13482
N           2.86660        -2.92854         1.51326
C           1.91754        -3.45524         0.71289
H          -1.81543         2.38902         0.23207
H          -1.83582        -2.13500         0.34561
H           3.07328        -1.04365        -0.25877
H           3.05853         1.37154        -0.20479
H           0.92891         2.70680        -0.00645
H          -0.63962        -3.07612        -1.46564
H           3.69206        -9.38878         1.76586
H           4.92352       -11.36530         2.43156
H           3.87285       -13.61698         2.08152
H           1.55478       -13.71186         1.12979
H          -1.95160       -10.63685        -2.50905
H          -2.48399        -8.24736        -2.95247



