%chk=25_C26H14N4S2Si.chk
%NProcShared=12
%Mem=8000MB
#B3LYP/6-31++G(d,p) opt scf=direct freq test

Geom opt of No.25 candidate from the CEPDB database with SMILE code of c1scc2c1ccc1[nH]c3c(ncc4cc(cnc34)-c3cncc4nsnc34)c21, HPC, 20131227, Shuo Dai, Gaussian09

0  1
C           2.44063         0.64760         0.12165
S           3.66167        -0.38971        -0.07186
C           3.06048         1.78994         0.35088
C           4.27184         2.10761         0.40905
C           4.30874         0.77332         0.15017
C           6.04740         0.97967         0.18826
C           6.94877         2.21055         0.42882
C           6.24855         3.38169         0.65732
N           6.51149         4.72022         0.91944
H           7.41652         5.16791         1.00732
C           5.30883         5.41388         1.05555
C           4.27603         4.50024         0.87576
N           2.95585         4.77969         0.92935
C           2.65826         6.04876         1.17615
C           3.59966         7.03082         1.36710
C           3.20183         8.32180         1.61259
C           4.16984         9.28448         1.83321
C           5.51297         8.89924         1.76076
N           5.95059         7.64525         1.49905
C           4.97281         6.73698         1.31605
C           3.78850        10.63958         2.11209
C           4.48592        11.73346         1.60512
N           4.22605        13.04558         1.84193
C           3.17633        13.40349         2.63704
C           2.36716        12.39910         3.19833
N           1.29704        12.57109         3.98968
S           0.73194        11.05682         4.36105
N           1.82729        10.13064         3.54063
C           2.68079        10.97482         2.92932
C           4.89093         3.30094         0.64163
H           1.44569         0.13336         0.02493
H           2.14362         2.44376         0.47571
H           6.72168         0.11512         0.02215
H           8.04441         2.23865         0.43458
H           1.59945         6.28015         1.22318
H           2.14554         8.57992         1.64147
H           6.29236         9.64199         1.92449
H           5.33464        11.55068         0.94322
H           3.00481        14.45285         2.80291



