%chk=38_C21H12N4S3Si2.chk
%NProcShared=12
%Mem=8000MB
#B3LYP/6-31++G(d,p) opt scf=direct freq test

Geom opt of No.38 candidate from the CEPDB database with SMILE code of c1occ2c1c(cc1c3cscc3c3c4ccccc4ncc3c21)-c1nccc2nsnc12, HPC, 20131227, Shuo Dai, Gaussian09

0  1
C           2.54956        -1.21082        -1.25943
O           2.18924        -1.14631         0.35872
C           3.34955        -1.84006         0.56223
C           3.97679        -0.81673        -0.20783
C           4.05607        -1.70943        -1.25047
C           5.69469        -2.05091        -1.18536
C           6.64681        -1.17147        -0.52682
C           6.22645         0.00556         0.05145
C           7.04643         1.11272         0.43130
C           8.42669         1.17342         0.40337
S           9.04173         2.68487         0.91233
C           7.45770         3.26124         1.12170
C           6.45041         2.35393         0.84050
C           5.02327         2.57737         0.90272
C           4.32643         3.75318         1.28312
C           4.99089         4.82693         1.90387
C           4.29107         5.82069         2.57500
C           3.46868         6.41911         1.70833
C           2.61308         5.31846         1.39392
C           3.00873         3.95161         1.19331
N           2.17080         2.89958         0.91823
C           2.79929         1.73810         0.60569
C           4.19339         1.45953         0.58826
C           4.83196         0.20719         0.26261
C           6.43507        -3.36398        -1.50044
N           7.77465        -3.31695        -2.00377
C           8.55813        -4.44695        -2.24594
C           8.20716        -5.76640        -2.01439
C           6.98054        -5.87008        -1.33594
N           6.43503        -7.03296        -0.94794
S           5.04559        -6.64914        -0.12987
N           5.05558        -4.99198        -0.22611
C           6.09614        -4.65642        -1.00547
H           1.73459        -0.41847        -1.22373
H           2.97781        -2.85314         0.21106
H           7.71412        -1.40949        -0.48803
H           9.18959         0.45997         0.14420
H           7.48775         4.26944         1.45534
H           6.00204         5.00609         1.71947
H           3.53724         5.83554         3.37626
H           4.33554         7.11195         1.67328
H           1.55448         5.42666         1.61032
H           2.04647         1.01293         0.29083
H           9.53397        -4.26037        -2.71259
H           8.79980        -6.62480        -2.31665



