%chk=30_C24H12N6S3.chk
%NProcShared=12
%Mem=8000MB
#B3LYP/6-31++G(d,p) opt scf=direct freq test

Geom opt of No.30 candidate from the CEPDB database with SMILE code of [SiH2]1ccc2c1c(sc2-c1cccnc1)-c1ccc([nH]1)-c1cncc2nsnc12, HPC, 20131227, Shuo Dai, Gaussian09

0  1
Si         -1.60396         1.44898         0.00377
H          -1.69493         2.26067        -1.23795
H          -1.69642         2.24386         1.25516
C          -2.34600        -0.24973        -0.00726
C          -1.39043        -1.20384        -0.01664
C          -0.04192        -0.70500         0.01732
C           0.06688         0.69857         0.01900
C           1.33592         1.17626         0.03288
S           2.44050        -0.09695         0.13996
C           1.20496        -1.29162         0.03512
C           1.64731        -2.66619        -0.00231
C           2.91758        -3.01166        -0.48557
C           3.30134        -4.33395        -0.52357
C           2.35521        -5.27768        -0.17612
N           1.13508        -4.99169         0.32935
C           0.83155        -3.68666         0.45180
C           1.78350         2.49747         0.00524
C           1.06602         3.66675        -0.02598
C           1.99471         4.69844        -0.00758
C           3.26617         4.15365         0.01535
N           3.11055         2.80313         0.01083
H           3.84208         2.09789         0.02820
C           4.54974         4.79697         0.04370
C           5.78969         4.15136         0.07107
N           7.01657         4.75235         0.10056
C           7.11824         6.11501         0.10569
C           5.94047         6.88613         0.07827
N           5.85093         8.22642         0.07703
S           4.23616         8.59885         0.03826
N           3.60038         7.08549         0.02194
C           4.62189         6.20900         0.04631
H          -3.41520        -0.37331        -0.01319
H          -1.63604        -2.25598        -0.04317
H           3.62449        -2.26258        -0.83701
H           4.30149        -4.60253        -0.83664
H           2.56108        -6.33204        -0.30183
H          -0.10489        -3.47609         0.95773
H           0.00068         3.79165        -0.04330
H           1.72341         5.74115        -0.00770
H           5.85394         3.06243         0.07023
H           8.10640         6.54522         0.13015



