%chk=91_C21H12N4S4Si.chk
%NProcShared=12
%Mem=8000MB
#B3LYP/6-31++G(d,p) opt scf=direct freq test

Geom opt of No.91 candidate from the CEPDB database with SMILE code of c1occ2c1ccc1sc3c4oc(cc4c4nsnc4c3c21)-c1nccc2nsnc12, HPC, 20131227, Shuo Dai, Gaussian09

0  1
C           2.46318        -1.16993        -0.91949
O           2.28504        -0.38732         0.31909
C           2.95535        -1.38554         0.97053
C           4.01301        -0.88010         0.26229
C           3.92164        -1.90238        -0.68655
C           5.47576        -2.26409        -0.49947
C           6.58125        -1.36200        -0.14135
C           6.19470        -0.00756        -0.04056
S           7.12519         1.44347         0.06689
C           5.69396         2.35671         0.13074
C           5.60675         3.76676         0.20042
O           6.54849         4.74716         0.24086
C           5.79291         5.89806         0.30320
C           4.46143         5.70350         0.30375
C           4.41202         4.34755         0.24552
C           3.20704         3.72689         0.22820
N           2.11177         4.46590         0.28968
S           0.92369         3.32820         0.17007
N           1.89827         1.94797         0.06226
C           3.16743         2.34127         0.13847
C           4.51621         1.64603         0.12662
C           4.84842         0.27010         0.06724
C           6.35457         7.18183         0.36600
N           5.46166         8.21517         0.25643
C           5.88086         9.49075         0.34047
C           7.19696         9.87526         0.54666
C           8.12396         8.81303         0.68225
N           9.44313         8.92146         0.89030
S          10.04909         7.37341         0.97946
N           8.66862         6.50415         0.76538
C           7.68960         7.40618         0.59646
H           1.30372        -1.30263        -0.70113
H           2.52333        -2.45242         0.75247
H           5.75173        -3.32747        -0.33393
H           7.62888        -1.64988        -0.05950
H           3.65009         6.39775         0.34328
H           5.08369        10.22437         0.22561
H           7.48851        10.90892         0.59866



